
     RDKit          3D

 12 12  0  0  0  0  0  0  0  0999 V2000
   -0.0662    0.0002   -0.0278 C   0  0  0  0  0  0  0  0  0  0  0  0
    0.0098    0.0001    1.3929 C   0  0  0  0  0  0  0  0  0  0  0  0
    1.2251    0.0001    2.1172 C   0  0  0  0  0  0  0  0  0  0  0  0
    2.4335   -0.0000    1.4195 C   0  0  0  0  0  0  0  0  0  0  0  0
    2.4139   -0.0000    0.0050 C   0  0  0  0  0  0  0  0  0  0  0  0
    1.2214   -0.0002   -0.7713 C   0  0  0  0  0  0  0  0  0  0  0  0
   -0.9454   -0.0001    1.9338 H   0  0  0  0  0  0  0  0  0  0  0  0
    1.2108   -0.0004    3.2116 H   0  0  0  0  0  0  0  0  0  0  0  0
    3.3885    0.0002    1.9545 H   0  0  0  0  0  0  0  0  0  0  0  0
    3.3599    0.0001   -0.5520 H   0  0  0  0  0  0  0  0  0  0  0  0
    1.2319   -0.0005   -2.0773 O   0  0  0  0  0  0  0  0  0  0  0  0
   -1.2024    0.0004   -0.6720 O   0  0  0  0  0  0  0  0  0  0  0  0
  1  2  1  0
  1  6  1  0
  1 12  2  0
  2  3  2  0
  2  7  1  0
  3  4  1  0
  3  8  1  0
  4  5  2  0
  4  9  1  0
  5  6  1  0
  5 10  1  0
  6 11  2  0
M  END

