
     RDKit          3D

 12 12  0  0  0  0  0  0  0  0999 V2000
   -0.0744    0.0000   -0.0428 C   0  0  0  0  0  0  0  0  0  0  0  0
    0.0058   -0.0000    1.3857 C   0  0  0  0  0  0  0  0  0  0  0  0
    1.2219    0.0000    2.0875 C   0  0  0  0  0  0  0  0  0  0  0  0
    2.4992   -0.0001    1.4428 C   0  0  0  0  0  0  0  0  0  0  0  0
    2.4190   -0.0001    0.0144 C   0  0  0  0  0  0  0  0  0  0  0  0
    1.2029    0.0001   -0.6875 C   0  0  0  0  0  0  0  0  0  0  0  0
   -0.9395    0.0000    1.9428 H   0  0  0  0  0  0  0  0  0  0  0  0
    1.2127    0.0000    3.1847 H   0  0  0  0  0  0  0  0  0  0  0  0
    3.6413    0.0001    2.1029 O   0  0  0  0  0  0  0  0  0  0  0  0
    3.3643   -0.0002   -0.5429 H   0  0  0  0  0  0  0  0  0  0  0  0
    1.2122    0.0002   -1.7847 H   0  0  0  0  0  0  0  0  0  0  0  0
   -1.2163   -0.0002   -0.7030 O   0  0  0  0  0  0  0  0  0  0  0  0
  1  2  1  0
  1  6  1  0
  1 12  2  0
  2  3  2  0
  2  7  1  0
  3  4  1  0
  3  8  1  0
  4  5  1  0
  4  9  2  0
  5  6  2  0
  5 10  1  0
  6 11  1  0
M  END

