
     RDKit          3D

 18 19  0  0  0  0  0  0  0  0999 V2000
   -0.0333    0.0002   -0.0224 C   0  0  0  0  0  0  0  0  0  0  0  0
   -0.0617   -0.0002    1.4504 C   0  0  0  0  0  0  0  0  0  0  0  0
    1.2031   -0.0001    2.1005 C   0  0  0  0  0  0  0  0  0  0  0  0
    2.4182    0.0002    1.3866 C   0  0  0  0  0  0  0  0  0  0  0  0
    2.4393    0.0004   -0.0030 C   0  0  0  0  0  0  0  0  0  0  0  0
    1.2167    0.0003   -0.7275 C   0  0  0  0  0  0  0  0  0  0  0  0
   -1.1826   -0.0006    2.0996 O   0  0  0  0  0  0  0  0  0  0  0  0
    1.2052   -0.0005    3.1953 H   0  0  0  0  0  0  0  0  0  0  0  0
    3.3613    0.0002    1.9436 H   0  0  0  0  0  0  0  0  0  0  0  0
    3.3745    0.0004   -0.5650 H   0  0  0  0  0  0  0  0  0  0  0  0
    1.2453   -0.0002   -2.2003 C   0  0  0  0  0  0  0  0  0  0  0  0
   -1.2558    0.0005   -0.7471 C   0  0  0  0  0  0  0  0  0  0  0  0
   -0.0194   -0.0002   -2.8505 C   0  0  0  0  0  0  0  0  0  0  0  0
   -1.2346    0.0002   -2.1366 C   0  0  0  0  0  0  0  0  0  0  0  0
    2.3664   -0.0006   -2.8493 O   0  0  0  0  0  0  0  0  0  0  0  0
   -0.0216   -0.0005   -3.9453 H   0  0  0  0  0  0  0  0  0  0  0  0
   -2.1777    0.0002   -2.6937 H   0  0  0  0  0  0  0  0  0  0  0  0
   -2.1913    0.0004   -0.1853 H   0  0  0  0  0  0  0  0  0  0  0  0
  1  2  1  0
  1  6  1  0
  1 12  2  0
  2  3  1  0
  2  7  2  0
  3  4  2  0
  3  8  1  0
  4  5  1  0
  4  9  1  0
  5  6  2  0
  5 10  1  0
  6 11  1  0
 11 13  1  0
 11 15  2  0
 12 14  1  0
 12 18  1  0
 13 14  2  0
 13 16  1  0
 14 17  1  0
M  END

