
     RDKit          3D

 24 26  0  0  0  0  0  0  0  0999 V2000
   -0.0261   -0.0001   -0.0129 C   0  0  0  0  0  0  0  0  0  0  0  0
   -0.0078   -0.0001    1.3907 C   0  0  0  0  0  0  0  0  0  0  0  0
    1.1911   -0.0002    2.1366 C   0  0  0  0  0  0  0  0  0  0  0  0
    2.4365    0.0000    1.3879 C   0  0  0  0  0  0  0  0  0  0  0  0
    2.4183   -0.0001   -0.0157 C   0  0  0  0  0  0  0  0  0  0  0  0
    1.2193   -0.0002   -0.7616 C   0  0  0  0  0  0  0  0  0  0  0  0
   -0.9632   -0.0001    1.9263 H   0  0  0  0  0  0  0  0  0  0  0  0
    1.2243   -0.0003    3.5600 C   0  0  0  0  0  0  0  0  0  0  0  0
    3.6554    0.0002    2.1415 C   0  0  0  0  0  0  0  0  0  0  0  0
    3.3737   -0.0001   -0.5513 H   0  0  0  0  0  0  0  0  0  0  0  0
    1.1862   -0.0003   -2.1850 C   0  0  0  0  0  0  0  0  0  0  0  0
   -1.2449    0.0002   -0.7665 C   0  0  0  0  0  0  0  0  0  0  0  0
   -0.0139   -0.0000   -2.9325 C   0  0  0  0  0  0  0  0  0  0  0  0
   -1.2416    0.0001   -2.1390 C   0  0  0  0  0  0  0  0  0  0  0  0
    2.1344   -0.0004   -2.7336 H   0  0  0  0  0  0  0  0  0  0  0  0
   -0.0722    0.0003   -4.2289 O   0  0  0  0  0  0  0  0  0  0  0  0
   -2.1851    0.0002   -2.6940 H   0  0  0  0  0  0  0  0  0  0  0  0
   -2.1935    0.0004   -0.2195 H   0  0  0  0  0  0  0  0  0  0  0  0
    3.6520    0.0001    3.5140 C   0  0  0  0  0  0  0  0  0  0  0  0
    2.4243   -0.0000    4.3075 C   0  0  0  0  0  0  0  0  0  0  0  0
    4.6039    0.0004    1.5945 H   0  0  0  0  0  0  0  0  0  0  0  0
    0.2760   -0.0004    4.1086 H   0  0  0  0  0  0  0  0  0  0  0  0
    2.4826    0.0003    5.6039 O   0  0  0  0  0  0  0  0  0  0  0  0
    4.5956    0.0002    4.0690 H   0  0  0  0  0  0  0  0  0  0  0  0
  1  2  2  0
  1  6  1  0
  1 12  1  0
  2  3  1  0
  2  7  1  0
  3  4  1  0
  3  8  2  0
  4  5  2  0
  4  9  1  0
  5  6  1  0
  5 10  1  0
  6 11  2  0
  8 20  1  0
  8 22  1  0
  9 19  2  0
  9 21  1  0
 11 13  1  0
 11 15  1  0
 12 14  2  0
 12 18  1  0
 13 14  1  0
 13 16  2  0
 14 17  1  0
 19 20  1  0
 19 24  1  0
 20 23  2  0
M  END

