
     RDKit          3D

 14 14  0  0  0  0  0  0  0  0999 V2000
   -0.0604   -0.0001   -0.0787 C   0  0  0  0  0  0  0  0  0  0  0  0
    0.0384   -0.0001    1.3686 C   0  0  0  0  0  0  0  0  0  0  0  0
    1.2297    0.0001    2.0526 C   0  0  0  0  0  0  0  0  0  0  0  0
    2.5298    0.0001    1.4088 C   0  0  0  0  0  0  0  0  0  0  0  0
    2.4714    0.0000   -0.0273 C   0  0  0  0  0  0  0  0  0  0  0  0
    1.2096   -0.0000   -0.7518 C   0  0  0  0  0  0  0  0  0  0  0  0
   -0.9097   -0.0002    1.9155 H   0  0  0  0  0  0  0  0  0  0  0  0
    1.2354    0.0002    3.1471 H   0  0  0  0  0  0  0  0  0  0  0  0
    3.6220    0.0001    2.0884 O   0  0  0  0  0  0  0  0  0  0  0  0
    3.6884   -0.0001   -0.7316 C   0  0  0  0  0  0  0  0  0  0  0  0
    1.2039    0.0002   -2.1578 C   0  0  0  0  0  0  0  0  0  0  0  0
   -1.1973   -0.0001   -0.6805 O   0  0  0  0  0  0  0  0  0  0  0  0
    4.7077   -0.0003   -1.3179 N   0  0  0  0  0  0  0  0  0  0  0  0
    1.1952    0.0003   -3.3336 N   0  0  0  0  0  0  0  0  0  0  0  0
  1  2  1  0
  1  6  1  0
  1 12  2  0
  2  3  2  0
  2  7  1  0
  3  4  1  0
  3  8  1  0
  4  5  1  0
  4  9  2  0
  5  6  2  0
  5 10  1  0
  6 11  1  0
 10 13  3  0
 11 14  3  0
M  END

