
     RDKit          3D

 35 38  0  0  0  0  0  0  0  0999 V2000
    4.2399   -0.6708    0.5547 O   0  0  0  0  0  0  0  0  0  0  0  0
    2.9743   -0.6700    0.2273 C   0  0  0  0  0  0  0  0  0  0  0  0
    2.1219   -1.8089    0.4637 C   0  0  0  0  0  0  0  0  0  0  0  0
    0.7349   -1.8311    0.0427 C   0  0  0  0  0  0  0  0  0  0  0  0
   -0.0268   -3.0002    0.3125 C   0  0  0  0  0  0  0  0  0  0  0  0
    0.5076   -4.1003    0.9594 C   0  0  0  0  0  0  0  0  0  0  0  0
    1.8730   -4.0822    1.3643 C   0  0  0  0  0  0  0  0  0  0  0  0
    2.6449   -2.9633    1.1150 C   0  0  0  0  0  0  0  0  0  0  0  0
    0.1028   -0.7216   -0.6492 C   0  0  0  0  0  0  0  0  0  0  0  0
   -1.0973   -0.8223   -1.1242 O   0  0  0  0  0  0  0  0  0  0  0  0
    0.9198    0.4673   -0.7683 C   0  0  0  0  0  0  0  0  0  0  0  0
    2.3361    0.4672   -0.3879 C   0  0  0  0  0  0  0  0  0  0  0  0
    3.1235    1.6269   -0.6452 C   0  0  0  0  0  0  0  0  0  0  0  0
    2.5937    2.7724   -1.1994 C   0  0  0  0  0  0  0  0  0  0  0  0
    1.2020    2.8245   -1.4890 C   0  0  0  0  0  0  0  0  0  0  0  0
    0.4162    1.7116   -1.2676 C   0  0  0  0  0  0  0  0  0  0  0  0
   -0.9460    1.8786   -1.5748 O   0  0  0  0  0  0  0  0  0  0  0  0
   -1.8535    1.8011   -0.5493 C   0  0  0  0  0  0  0  0  0  0  0  0
   -1.4931    1.8882    0.8030 C   0  0  0  0  0  0  0  0  0  0  0  0
   -2.4904    1.8570    1.7826 C   0  0  0  0  0  0  0  0  0  0  0  0
   -3.8407    1.7559    1.4308 C   0  0  0  0  0  0  0  0  0  0  0  0
   -4.1895    1.6857    0.0743 C   0  0  0  0  0  0  0  0  0  0  0  0
   -3.2038    1.7049   -0.9126 C   0  0  0  0  0  0  0  0  0  0  0  0
   -1.0703   -2.9929   -0.0119 H   0  0  0  0  0  0  0  0  0  0  0  0
   -0.1115   -4.9778    1.1605 H   0  0  0  0  0  0  0  0  0  0  0  0
    2.3046   -4.9491    1.8707 H   0  0  0  0  0  0  0  0  0  0  0  0
    3.6948   -2.9285    1.4165 H   0  0  0  0  0  0  0  0  0  0  0  0
    4.1803    1.5689   -0.3757 H   0  0  0  0  0  0  0  0  0  0  0  0
    3.2207    3.6466   -1.3876 H   0  0  0  0  0  0  0  0  0  0  0  0
    0.7288    3.7360   -1.8580 H   0  0  0  0  0  0  0  0  0  0  0  0
   -0.4416    1.9610    1.0775 H   0  0  0  0  0  0  0  0  0  0  0  0
   -2.2039    1.9181    2.8346 H   0  0  0  0  0  0  0  0  0  0  0  0
   -4.6125    1.7342    2.2015 H   0  0  0  0  0  0  0  0  0  0  0  0
   -5.2385    1.6063   -0.2175 H   0  0  0  0  0  0  0  0  0  0  0  0
   -3.4606    1.6341   -1.9704 H   0  0  0  0  0  0  0  0  0  0  0  0
  1  2  2  0
  2  3  1  0
  2 12  1  0
  3  4  2  0
  3  8  1  0
  4  5  1  0
  4  9  1  0
  5  6  2  0
  5 24  1  0
  6  7  1  0
  6 25  1  0
  7  8  2  0
  7 26  1  0
  8 27  1  0
  9 10  2  0
  9 11  1  0
 11 12  2  0
 11 16  1  0
 12 13  1  0
 13 14  2  0
 13 28  1  0
 14 15  1  0
 14 29  1  0
 15 16  2  0
 15 30  1  0
 16 17  1  0
 17 18  1  0
 18 19  2  0
 18 23  1  0
 19 20  1  0
 19 31  1  0
 20 21  2  0
 20 32  1  0
 21 22  1  0
 21 33  1  0
 22 23  2  0
 22 34  1  0
 23 35  1  0
M  END

