
     RDKit          3D

 30 32  0  0  0  0  0  0  0  0999 V2000
   -3.7132    0.1137   -1.9335 C   0  0  0  0  0  0  0  0  0  0  0  0
   -2.4963    0.1348   -1.0413 C   0  0  0  0  0  0  0  0  0  0  0  0
   -1.2388   -0.1522   -1.5422 C   0  0  0  0  0  0  0  0  0  0  0  0
   -0.0542   -0.1487   -0.7527 C   0  0  0  0  0  0  0  0  0  0  0  0
   -0.1860    0.1741    0.6555 C   0  0  0  0  0  0  0  0  0  0  0  0
   -1.4904    0.4655    1.1455 C   0  0  0  0  0  0  0  0  0  0  0  0
   -2.6270    0.4565    0.3565 C   0  0  0  0  0  0  0  0  0  0  0  0
   -3.9818    0.7763    0.9394 C   0  0  0  0  0  0  0  0  0  0  0  0
    0.9443    0.2069    1.5529 C   0  0  0  0  0  0  0  0  0  0  0  0
    0.8228    0.4971    2.8219 O   0  0  0  0  0  0  0  0  0  0  0  0
    2.2164   -0.1030    0.9475 C   0  0  0  0  0  0  0  0  0  0  0  0
    2.3490   -0.4269   -0.4688 C   0  0  0  0  0  0  0  0  0  0  0  0
    3.6520   -0.7166   -0.9671 C   0  0  0  0  0  0  0  0  0  0  0  0
    4.7753   -0.7004   -0.1621 C   0  0  0  0  0  0  0  0  0  0  0  0
    4.6454   -0.3838    1.2232 C   0  0  0  0  0  0  0  0  0  0  0  0
    3.3978   -0.0971    1.7439 C   0  0  0  0  0  0  0  0  0  0  0  0
    1.2170   -0.4601   -1.3621 C   0  0  0  0  0  0  0  0  0  0  0  0
    1.3324   -0.7507   -2.6316 O   0  0  0  0  0  0  0  0  0  0  0  0
   -4.2199    1.0929   -1.9587 H   0  0  0  0  0  0  0  0  0  0  0  0
   -4.4660   -0.6128   -1.5839 H   0  0  0  0  0  0  0  0  0  0  0  0
   -3.4419   -0.1524   -2.9645 H   0  0  0  0  0  0  0  0  0  0  0  0
   -1.1194   -0.3990   -2.6015 H   0  0  0  0  0  0  0  0  0  0  0  0
   -1.5703    0.7074    2.2096 H   0  0  0  0  0  0  0  0  0  0  0  0
   -3.9067    0.9998    2.0125 H   0  0  0  0  0  0  0  0  0  0  0  0
   -4.6890   -0.0613    0.8171 H   0  0  0  0  0  0  0  0  0  0  0  0
   -4.4464    1.6453    0.4444 H   0  0  0  0  0  0  0  0  0  0  0  0
    3.7304   -0.9565   -2.0308 H   0  0  0  0  0  0  0  0  0  0  0  0
    5.7587   -0.9276   -0.5812 H   0  0  0  0  0  0  0  0  0  0  0  0
    5.5293   -0.3691    1.8657 H   0  0  0  0  0  0  0  0  0  0  0  0
    3.2768    0.1480    2.8024 H   0  0  0  0  0  0  0  0  0  0  0  0
  1  2  1  0
  1 19  1  0
  1 20  1  0
  1 21  1  0
  2  3  2  0
  2  7  1  0
  3  4  1  0
  3 22  1  0
  4  5  2  0
  4 17  1  0
  5  6  1  0
  5  9  1  0
  6  7  2  0
  6 23  1  0
  7  8  1  0
  8 24  1  0
  8 25  1  0
  8 26  1  0
  9 10  2  0
  9 11  1  0
 11 12  2  0
 11 16  1  0
 12 13  1  0
 12 17  1  0
 13 14  2  0
 13 27  1  0
 14 15  1  0
 14 28  1  0
 15 16  2  0
 15 29  1  0
 16 30  1  0
 17 18  2  0
M  END

