
     RDKit          3D

 30 32  0  0  0  0  0  0  0  0999 V2000
    4.9508    0.4832    1.2640 C   0  0  0  0  0  0  0  0  0  0  0  0
    3.6626    0.3441    0.4903 C   0  0  0  0  0  0  0  0  0  0  0  0
    2.4340    0.2496    1.1180 C   0  0  0  0  0  0  0  0  0  0  0  0
    1.2005    0.1186    0.4127 C   0  0  0  0  0  0  0  0  0  0  0  0
    1.2465    0.0831   -1.0402 C   0  0  0  0  0  0  0  0  0  0  0  0
    2.5222    0.1819   -1.6627 C   0  0  0  0  0  0  0  0  0  0  0  0
    3.6922    0.3077   -0.9404 C   0  0  0  0  0  0  0  0  0  0  0  0
    0.0585   -0.0464   -1.8505 C   0  0  0  0  0  0  0  0  0  0  0  0
    0.0997   -0.0790   -3.1548 O   0  0  0  0  0  0  0  0  0  0  0  0
   -1.1784   -0.1374   -1.1113 C   0  0  0  0  0  0  0  0  0  0  0  0
   -1.2240   -0.1017    0.3416 C   0  0  0  0  0  0  0  0  0  0  0  0
   -2.5000   -0.1991    0.9727 C   0  0  0  0  0  0  0  0  0  0  0  0
   -3.6866   -0.3251    0.2737 C   0  0  0  0  0  0  0  0  0  0  0  0
   -5.0215   -0.4272    0.9700 C   0  0  0  0  0  0  0  0  0  0  0  0
   -3.6259   -0.3587   -1.1560 C   0  0  0  0  0  0  0  0  0  0  0  0
   -2.4124   -0.2674   -1.8080 C   0  0  0  0  0  0  0  0  0  0  0  0
   -0.0361    0.0273    1.1490 C   0  0  0  0  0  0  0  0  0  0  0  0
   -0.0774    0.0597    2.4570 O   0  0  0  0  0  0  0  0  0  0  0  0
    5.4829    1.4123    0.9983 H   0  0  0  0  0  0  0  0  0  0  0  0
    4.7692    0.4966    2.3478 H   0  0  0  0  0  0  0  0  0  0  0  0
    5.6438   -0.3466    1.0463 H   0  0  0  0  0  0  0  0  0  0  0  0
    2.3725    0.2741    2.2103 H   0  0  0  0  0  0  0  0  0  0  0  0
    2.5432    0.1540   -2.7554 H   0  0  0  0  0  0  0  0  0  0  0  0
    4.6532    0.3812   -1.4583 H   0  0  0  0  0  0  0  0  0  0  0  0
   -2.5086   -0.1696    2.0665 H   0  0  0  0  0  0  0  0  0  0  0  0
   -5.5355   -1.3710    0.7212 H   0  0  0  0  0  0  0  0  0  0  0  0
   -4.9096   -0.3818    2.0624 H   0  0  0  0  0  0  0  0  0  0  0  0
   -5.6996    0.3874    0.6644 H   0  0  0  0  0  0  0  0  0  0  0  0
   -4.5525   -0.4574   -1.7291 H   0  0  0  0  0  0  0  0  0  0  0  0
   -2.3634   -0.2926   -2.8999 H   0  0  0  0  0  0  0  0  0  0  0  0
  1  2  1  0
  1 19  1  0
  1 20  1  0
  1 21  1  0
  2  3  2  0
  2  7  1  0
  3  4  1  0
  3 22  1  0
  4  5  2  0
  4 17  1  0
  5  6  1  0
  5  8  1  0
  6  7  2  0
  6 23  1  0
  7 24  1  0
  8  9  2  0
  8 10  1  0
 10 11  2  0
 10 16  1  0
 11 12  1  0
 11 17  1  0
 12 13  2  0
 12 25  1  0
 13 14  1  0
 13 15  1  0
 14 26  1  0
 14 27  1  0
 14 28  1  0
 15 16  2  0
 15 29  1  0
 16 30  1  0
 17 18  2  0
M  END

