
     RDKit          3D

 32 34  0  0  0  0  0  0  0  0999 V2000
   -0.1062   -0.0105   -4.3336 C   0  0  0  0  0  0  0  0  0  0  0  0
    0.0103   -0.0215   -2.8906 C   0  0  0  0  0  0  0  0  0  0  0  0
   -1.2462   -0.0085   -2.1486 C   0  0  0  0  0  0  0  0  0  0  0  0
   -2.4904    0.0041   -2.8479 C   0  0  0  0  0  0  0  0  0  0  0  0
   -2.5446    0.0081   -4.2208 C   0  0  0  0  0  0  0  0  0  0  0  0
   -1.3426    0.0021   -4.9761 C   0  0  0  0  0  0  0  0  0  0  0  0
   -1.2916   -0.0088   -0.7113 C   0  0  0  0  0  0  0  0  0  0  0  0
   -0.0256   -0.0083   -0.0293 C   0  0  0  0  0  0  0  0  0  0  0  0
    1.2469   -0.0212   -0.7431 C   0  0  0  0  0  0  0  0  0  0  0  0
    1.3008   -0.0494   -2.2039 C   0  0  0  0  0  0  0  0  0  0  0  0
    2.4363   -0.0098    0.0822 C   0  0  0  0  0  0  0  0  0  0  0  0
    2.3713    0.0029    1.4742 C   0  0  0  0  0  0  0  0  0  0  0  0
    1.1144    0.0084    2.1342 C   0  0  0  0  0  0  0  0  0  0  0  0
   -0.0455    0.0042    1.3976 C   0  0  0  0  0  0  0  0  0  0  0  0
   -2.4285   -0.0057   -0.0559 O   0  0  0  0  0  0  0  0  0  0  0  0
    2.4186   -0.0989   -2.8477 O   0  0  0  0  0  0  0  0  0  0  0  0
    3.6567   -0.0067   -0.5575 O   0  0  0  0  0  0  0  0  0  0  0  0
    4.8398    0.0139    0.2443 C   0  0  0  0  0  0  0  0  0  0  0  0
   -1.0266    0.0111    1.8759 H   0  0  0  0  0  0  0  0  0  0  0  0
    1.0852    0.0182    3.2268 H   0  0  0  0  0  0  0  0  0  0  0  0
    3.2810    0.0117    2.0701 H   0  0  0  0  0  0  0  0  0  0  0  0
    1.0598   -0.0075   -5.0676 O   0  0  0  0  0  0  0  0  0  0  0  0
   -1.4012    0.0106   -6.0622 H   0  0  0  0  0  0  0  0  0  0  0  0
   -3.5041    0.0181   -4.7446 H   0  0  0  0  0  0  0  0  0  0  0  0
   -3.3969    0.0115   -2.2399 H   0  0  0  0  0  0  0  0  0  0  0  0
    5.6747    0.0152   -0.4671 H   0  0  0  0  0  0  0  0  0  0  0  0
    4.8966    0.9189    0.8732 H   0  0  0  0  0  0  0  0  0  0  0  0
    4.9154   -0.8767    0.8913 H   0  0  0  0  0  0  0  0  0  0  0  0
    0.9614    0.0145   -6.4932 C   0  0  0  0  0  0  0  0  0  0  0  0
    1.9960    0.0156   -6.8574 H   0  0  0  0  0  0  0  0  0  0  0  0
    0.4400   -0.8760   -6.8848 H   0  0  0  0  0  0  0  0  0  0  0  0
    0.4470    0.9203   -6.8577 H   0  0  0  0  0  0  0  0  0  0  0  0
  1  2  2  0
  1  6  1  0
  1 22  1  0
  2  3  1  0
  2 10  1  0
  3  4  2  0
  3  7  1  0
  4  5  1  0
  4 25  1  0
  5  6  2  0
  5 24  1  0
  6 23  1  0
  7  8  1  0
  7 15  2  0
  8  9  2  0
  8 14  1  0
  9 10  1  0
  9 11  1  0
 10 16  2  0
 11 12  2  0
 11 17  1  0
 12 13  1  0
 12 21  1  0
 13 14  2  0
 13 20  1  0
 14 19  1  0
 17 18  1  0
 18 26  1  0
 18 27  1  0
 18 28  1  0
 22 29  1  0
 29 30  1  0
 29 31  1  0
 29 32  1  0
M  END

