
     RDKit          3D

 32 34  0  0  0  0  0  0  0  0999 V2000
   -1.2480    0.0008   -0.7398 C   0  0  0  0  0  0  0  0  0  0  0  0
   -0.0349    0.0008    0.0056 C   0  0  0  0  0  0  0  0  0  0  0  0
    1.2113    0.0006   -0.7410 C   0  0  0  0  0  0  0  0  0  0  0  0
    1.1575    0.0002   -2.1703 C   0  0  0  0  0  0  0  0  0  0  0  0
   -0.0468    0.0000   -2.8445 C   0  0  0  0  0  0  0  0  0  0  0  0
   -1.2754    0.0004   -2.1183 C   0  0  0  0  0  0  0  0  0  0  0  0
    2.4939    0.0008   -0.0888 C   0  0  0  0  0  0  0  0  0  0  0  0
    2.4482    0.0008    1.3544 C   0  0  0  0  0  0  0  0  0  0  0  0
    1.2021    0.0008    2.1010 C   0  0  0  0  0  0  0  0  0  0  0  0
   -0.0806    0.0010    1.4488 C   0  0  0  0  0  0  0  0  0  0  0  0
    1.2558    0.0004    3.5303 C   0  0  0  0  0  0  0  0  0  0  0  0
    2.4602    0.0002    4.2044 C   0  0  0  0  0  0  0  0  0  0  0  0
    3.6889    0.0005    3.4782 C   0  0  0  0  0  0  0  0  0  0  0  0
    3.6613    0.0008    2.0997 C   0  0  0  0  0  0  0  0  0  0  0  0
    3.6194    0.0010   -0.7571 O   0  0  0  0  0  0  0  0  0  0  0  0
   -1.2060    0.0013    2.1171 O   0  0  0  0  0  0  0  0  0  0  0  0
    0.2979    0.0003    4.0509 H   0  0  0  0  0  0  0  0  0  0  0  0
    4.5942    0.0010    1.5305 H   0  0  0  0  0  0  0  0  0  0  0  0
    4.6302    0.0005    4.0322 H   0  0  0  0  0  0  0  0  0  0  0  0
    2.6037   -0.0005    5.5833 O   0  0  0  0  0  0  0  0  0  0  0  0
   -2.1810    0.0010   -0.1706 H   0  0  0  0  0  0  0  0  0  0  0  0
   -2.2168    0.0004   -2.6723 H   0  0  0  0  0  0  0  0  0  0  0  0
   -0.1902   -0.0005   -4.2233 O   0  0  0  0  0  0  0  0  0  0  0  0
    2.1156   -0.0000   -2.6909 H   0  0  0  0  0  0  0  0  0  0  0  0
    1.4009   -0.0015    6.3578 C   0  0  0  0  0  0  0  0  0  0  0  0
    1.7160   -0.0018    7.4078 H   0  0  0  0  0  0  0  0  0  0  0  0
    0.7914    0.8956    6.1560 H   0  0  0  0  0  0  0  0  0  0  0  0
    0.7924   -0.8990    6.1551 H   0  0  0  0  0  0  0  0  0  0  0  0
    1.0126   -0.0013   -4.9978 C   0  0  0  0  0  0  0  0  0  0  0  0
    0.6975   -0.0016   -6.0478 H   0  0  0  0  0  0  0  0  0  0  0  0
    1.6220    0.8958   -4.7959 H   0  0  0  0  0  0  0  0  0  0  0  0
    1.6212   -0.8988   -4.7953 H   0  0  0  0  0  0  0  0  0  0  0  0
  1  2  2  0
  1  6  1  0
  1 21  1  0
  2  3  1  0
  2 10  1  0
  3  4  2  0
  3  7  1  0
  4  5  1  0
  4 24  1  0
  5  6  2  0
  5 23  1  0
  6 22  1  0
  7  8  1  0
  7 15  2  0
  8  9  2  0
  8 14  1  0
  9 10  1  0
  9 11  1  0
 10 16  2  0
 11 12  2  0
 11 17  1  0
 12 13  1  0
 12 20  1  0
 13 14  2  0
 13 19  1  0
 14 18  1  0
 20 25  1  0
 23 29  1  0
 25 26  1  0
 25 27  1  0
 25 28  1  0
 29 30  1  0
 29 31  1  0
 29 32  1  0
M  END

