
     RDKit          3D

 40 42  0  0  0  0  0  0  0  0999 V2000
   -0.0146   -0.1691    1.3914 C   0  0  0  0  0  0  0  0  0  0  0  0
   -0.0535   -0.4015   -0.0315 C   0  0  0  0  0  0  0  0  0  0  0  0
    1.2100   -0.4047   -0.7657 C   0  0  0  0  0  0  0  0  0  0  0  0
    2.4287   -0.1839   -0.0262 C   0  0  0  0  0  0  0  0  0  0  0  0
    2.4152   -0.0121    1.3464 C   0  0  0  0  0  0  0  0  0  0  0  0
    1.1850   -0.0030    2.0600 C   0  0  0  0  0  0  0  0  0  0  0  0
    1.2261   -0.6710   -2.1945 C   0  0  0  0  0  0  0  0  0  0  0  0
   -0.0243   -0.4012   -2.8845 C   0  0  0  0  0  0  0  0  0  0  0  0
   -1.2878   -0.4062   -2.1502 C   0  0  0  0  0  0  0  0  0  0  0  0
   -1.3035   -0.6729   -0.7216 C   0  0  0  0  0  0  0  0  0  0  0  0
   -2.5068   -0.1862   -2.8895 C   0  0  0  0  0  0  0  0  0  0  0  0
   -2.4936   -0.0135   -4.2619 C   0  0  0  0  0  0  0  0  0  0  0  0
   -1.2635   -0.0029   -4.9757 C   0  0  0  0  0  0  0  0  0  0  0  0
   -0.0636   -0.1687   -4.3074 C   0  0  0  0  0  0  0  0  0  0  0  0
    1.1507   -0.0468   -4.9590 O   0  0  0  0  0  0  0  0  0  0  0  0
   -3.6775   -0.0866   -2.1590 O   0  0  0  0  0  0  0  0  0  0  0  0
   -2.3468   -1.1352   -0.1118 O   0  0  0  0  0  0  0  0  0  0  0  0
    2.2702   -1.1313   -2.8045 O   0  0  0  0  0  0  0  0  0  0  0  0
    3.5995   -0.0821   -0.7564 O   0  0  0  0  0  0  0  0  0  0  0  0
   -1.2292   -0.0478    2.0427 O   0  0  0  0  0  0  0  0  0  0  0  0
   -1.2902    0.1890   -6.0463 H   0  0  0  0  0  0  0  0  0  0  0  0
   -3.4126    0.1678   -4.8155 H   0  0  0  0  0  0  0  0  0  0  0  0
    1.2114    0.1885    3.1307 H   0  0  0  0  0  0  0  0  0  0  0  0
    3.3340    0.1697    1.9002 H   0  0  0  0  0  0  0  0  0  0  0  0
    4.7919    0.2542   -0.0487 C   0  0  0  0  0  0  0  0  0  0  0  0
    5.5826    0.3066   -0.8074 H   0  0  0  0  0  0  0  0  0  0  0  0
    4.7091    1.2309    0.4600 H   0  0  0  0  0  0  0  0  0  0  0  0
    5.0596   -0.5138    0.6981 H   0  0  0  0  0  0  0  0  0  0  0  0
   -1.2048    0.3036    3.4250 C   0  0  0  0  0  0  0  0  0  0  0  0
   -2.2555    0.3731    3.7327 H   0  0  0  0  0  0  0  0  0  0  0  0
   -0.7002   -0.4641    4.0378 H   0  0  0  0  0  0  0  0  0  0  0  0
   -0.7092    1.2758    3.5957 H   0  0  0  0  0  0  0  0  0  0  0  0
   -4.8706    0.2482   -2.8661 C   0  0  0  0  0  0  0  0  0  0  0  0
   -5.6612    0.2988   -2.1073 H   0  0  0  0  0  0  0  0  0  0  0  0
   -4.7896    1.2254   -3.3743 H   0  0  0  0  0  0  0  0  0  0  0  0
   -5.1371   -0.5198   -3.6134 H   0  0  0  0  0  0  0  0  0  0  0  0
    1.1259    0.3035   -6.3415 C   0  0  0  0  0  0  0  0  0  0  0  0
    2.1765    0.3730   -6.6495 H   0  0  0  0  0  0  0  0  0  0  0  0
    0.6213   -0.4647   -6.9536 H   0  0  0  0  0  0  0  0  0  0  0  0
    0.6301    1.2756   -6.5128 H   0  0  0  0  0  0  0  0  0  0  0  0
  1  2  2  0
  1  6  1  0
  1 20  1  0
  2  3  1  0
  2 10  1  0
  3  4  2  0
  3  7  1  0
  4  5  1  0
  4 19  1  0
  5  6  2  0
  5 24  1  0
  6 23  1  0
  7  8  1  0
  7 18  2  0
  8  9  2  0
  8 14  1  0
  9 10  1  0
  9 11  1  0
 10 17  2  0
 11 12  2  0
 11 16  1  0
 12 13  1  0
 12 22  1  0
 13 14  2  0
 13 21  1  0
 14 15  1  0
 15 37  1  0
 16 33  1  0
 19 25  1  0
 20 29  1  0
 25 26  1  0
 25 27  1  0
 25 28  1  0
 29 30  1  0
 29 31  1  0
 29 32  1  0
 33 34  1  0
 33 35  1  0
 33 36  1  0
 37 38  1  0
 37 39  1  0
 37 40  1  0
M  END

