
     RDKit          3D

 40 42  0  0  0  0  0  0  0  0999 V2000
    3.7790    0.0001    1.8771 C   0  0  0  0  0  0  0  0  0  0  0  0
    2.5216   -0.0001    1.1992 C   0  0  0  0  0  0  0  0  0  0  0  0
    1.3143   -0.0002    1.9989 C   0  0  0  0  0  0  0  0  0  0  0  0
    1.4473   -0.0003    3.4213 C   0  0  0  0  0  0  0  0  0  0  0  0
    2.6751   -0.0001    4.0470 C   0  0  0  0  0  0  0  0  0  0  0  0
    3.8758    0.0001    3.2519 C   0  0  0  0  0  0  0  0  0  0  0  0
   -0.0006   -0.0001    1.4142 C   0  0  0  0  0  0  0  0  0  0  0  0
   -0.0267   -0.0001   -0.0247 C   0  0  0  0  0  0  0  0  0  0  0  0
    1.1806   -0.0001   -0.8244 C   0  0  0  0  0  0  0  0  0  0  0  0
    2.4955   -0.0002   -0.2397 C   0  0  0  0  0  0  0  0  0  0  0  0
    1.0477   -0.0002   -2.2467 C   0  0  0  0  0  0  0  0  0  0  0  0
   -0.1802   -0.0000   -2.8725 C   0  0  0  0  0  0  0  0  0  0  0  0
   -1.3809    0.0002   -2.0774 C   0  0  0  0  0  0  0  0  0  0  0  0
   -1.2841    0.0001   -0.7026 C   0  0  0  0  0  0  0  0  0  0  0  0
   -0.3827   -0.0001   -4.2397 O   0  0  0  0  0  0  0  0  0  0  0  0
   -2.5604    0.0004   -2.7977 O   0  0  0  0  0  0  0  0  0  0  0  0
    3.5891   -0.0003   -0.9651 O   0  0  0  0  0  0  0  0  0  0  0  0
   -1.0941   -0.0000    2.1397 O   0  0  0  0  0  0  0  0  0  0  0  0
    2.8776   -0.0002    5.4142 O   0  0  0  0  0  0  0  0  0  0  0  0
    5.0553    0.0003    3.9723 O   0  0  0  0  0  0  0  0  0  0  0  0
    1.9758   -0.0003   -2.8191 H   0  0  0  0  0  0  0  0  0  0  0  0
   -2.1739    0.0002   -0.0724 H   0  0  0  0  0  0  0  0  0  0  0  0
    4.6688    0.0001    1.2470 H   0  0  0  0  0  0  0  0  0  0  0  0
    0.5191   -0.0004    3.9937 H   0  0  0  0  0  0  0  0  0  0  0  0
    6.2680    0.0011    3.2140 C   0  0  0  0  0  0  0  0  0  0  0  0
    7.0823    0.0011    3.9479 H   0  0  0  0  0  0  0  0  0  0  0  0
    6.3453   -0.8962    2.5769 H   0  0  0  0  0  0  0  0  0  0  0  0
    6.3446    0.8988    2.5776 H   0  0  0  0  0  0  0  0  0  0  0  0
    1.7063   -0.0009    6.2354 C   0  0  0  0  0  0  0  0  0  0  0  0
    2.0649   -0.0007    7.2712 H   0  0  0  0  0  0  0  0  0  0  0  0
    1.0895    0.8962    6.0578 H   0  0  0  0  0  0  0  0  0  0  0  0
    1.0906   -0.8986    6.0577 H   0  0  0  0  0  0  0  0  0  0  0  0
    0.7886   -0.0009   -5.0608 C   0  0  0  0  0  0  0  0  0  0  0  0
    0.4300   -0.0008   -6.0967 H   0  0  0  0  0  0  0  0  0  0  0  0
    1.4055    0.8962   -4.8833 H   0  0  0  0  0  0  0  0  0  0  0  0
    1.4043   -0.8987   -4.8831 H   0  0  0  0  0  0  0  0  0  0  0  0
   -3.7731    0.0010   -2.0394 C   0  0  0  0  0  0  0  0  0  0  0  0
   -4.5874    0.0010   -2.7733 H   0  0  0  0  0  0  0  0  0  0  0  0
   -3.8502   -0.8963   -1.4024 H   0  0  0  0  0  0  0  0  0  0  0  0
   -3.8497    0.8987   -1.4030 H   0  0  0  0  0  0  0  0  0  0  0  0
  1  2  2  0
  1  6  1  0
  1 23  1  0
  2  3  1  0
  2 10  1  0
  3  4  2  0
  3  7  1  0
  4  5  1  0
  4 24  1  0
  5  6  2  0
  5 19  1  0
  6 20  1  0
  7  8  1  0
  7 18  2  0
  8  9  2  0
  8 14  1  0
  9 10  1  0
  9 11  1  0
 10 17  2  0
 11 12  2  0
 11 21  1  0
 12 13  1  0
 12 15  1  0
 13 14  2  0
 13 16  1  0
 14 22  1  0
 15 33  1  0
 16 37  1  0
 19 29  1  0
 20 25  1  0
 25 26  1  0
 25 27  1  0
 25 28  1  0
 29 30  1  0
 29 31  1  0
 29 32  1  0
 33 34  1  0
 33 35  1  0
 33 36  1  0
 37 38  1  0
 37 39  1  0
 37 40  1  0
M  END

