
     RDKit          3D

 23 25  0  0  0  0  0  0  0  0999 V2000
   -1.3351   -0.0002   -0.6770 C   0  0  0  0  0  0  0  0  0  0  0  0
   -0.0453   -0.0002   -0.0166 C   0  0  0  0  0  0  0  0  0  0  0  0
    1.2114   -0.0001   -0.7451 C   0  0  0  0  0  0  0  0  0  0  0  0
    1.2669   -0.0001   -2.1947 C   0  0  0  0  0  0  0  0  0  0  0  0
   -0.0220   -0.0001   -2.8463 C   0  0  0  0  0  0  0  0  0  0  0  0
   -1.2777   -0.0001   -2.1088 C   0  0  0  0  0  0  0  0  0  0  0  0
    2.4217   -0.0000    0.0008 C   0  0  0  0  0  0  0  0  0  0  0  0
    2.4369    0.0000    1.3835 C   0  0  0  0  0  0  0  0  0  0  0  0
    1.2065    0.0001    2.0984 C   0  0  0  0  0  0  0  0  0  0  0  0
    0.0103   -0.0001    1.4064 C   0  0  0  0  0  0  0  0  0  0  0  0
   -2.4629    0.0001   -2.8982 C   0  0  0  0  0  0  0  0  0  0  0  0
   -2.4037    0.0001   -4.2731 C   0  0  0  0  0  0  0  0  0  0  0  0
   -1.2197    0.0000   -4.9867 N   0  0  0  0  0  0  0  0  0  0  0  0
   -0.1033   -0.0001   -4.2609 C   0  0  0  0  0  0  0  0  0  0  0  0
    2.3881    0.0001   -2.8486 O   0  0  0  0  0  0  0  0  0  0  0  0
   -2.4596   -0.0003   -0.0146 O   0  0  0  0  0  0  0  0  0  0  0  0
   -0.9445   -0.0000    1.9379 H   0  0  0  0  0  0  0  0  0  0  0  0
    1.2107    0.0003    3.1911 H   0  0  0  0  0  0  0  0  0  0  0  0
    3.3851    0.0001    1.9261 H   0  0  0  0  0  0  0  0  0  0  0  0
    3.3545    0.0000   -0.5686 H   0  0  0  0  0  0  0  0  0  0  0  0
    0.8429   -0.0001   -4.8143 H   0  0  0  0  0  0  0  0  0  0  0  0
   -3.3178    0.0003   -4.8741 H   0  0  0  0  0  0  0  0  0  0  0  0
   -3.4264    0.0002   -2.3830 H   0  0  0  0  0  0  0  0  0  0  0  0
  1  2  1  0
  1  6  1  0
  1 16  2  0
  2  3  2  0
  2 10  1  0
  3  4  1  0
  3  7  1  0
  4  5  1  0
  4 15  2  0
  5  6  2  0
  5 14  1  0
  6 11  1  0
  7  8  2  0
  7 20  1  0
  8  9  1  0
  8 19  1  0
  9 10  2  0
  9 18  1  0
 10 17  1  0
 11 12  2  0
 11 23  1  0
 12 13  1  0
 12 22  1  0
 13 14  2  0
 14 21  1  0
M  END

