
     RDKit          3D

 22 24  0  0  0  0  0  0  0  0999 V2000
   -1.3573    0.0005   -0.6760 C   0  0  0  0  0  0  0  0  0  0  0  0
   -0.0765    0.0003   -0.0130 C   0  0  0  0  0  0  0  0  0  0  0  0
    1.1910    0.0003   -0.7371 C   0  0  0  0  0  0  0  0  0  0  0  0
    1.2634    0.0006   -2.1846 C   0  0  0  0  0  0  0  0  0  0  0  0
   -0.0250    0.0002   -2.8487 C   0  0  0  0  0  0  0  0  0  0  0  0
   -1.2878    0.0002   -2.1166 C   0  0  0  0  0  0  0  0  0  0  0  0
    2.3844   -0.0001   -0.0513 N   0  0  0  0  0  0  0  0  0  0  0  0
    2.3761   -0.0004    1.2727 C   0  0  0  0  0  0  0  0  0  0  0  0
    1.1934   -0.0003    2.0622 C   0  0  0  0  0  0  0  0  0  0  0  0
   -0.0181    0.0000    1.4016 C   0  0  0  0  0  0  0  0  0  0  0  0
   -2.4817   -0.0000   -2.8781 C   0  0  0  0  0  0  0  0  0  0  0  0
   -2.4441   -0.0004   -4.2574 C   0  0  0  0  0  0  0  0  0  0  0  0
   -1.1672   -0.0004   -4.8831 C   0  0  0  0  0  0  0  0  0  0  0  0
   -0.0184   -0.0000   -4.2250 N   0  0  0  0  0  0  0  0  0  0  0  0
    2.3849    0.0012   -2.8309 O   0  0  0  0  0  0  0  0  0  0  0  0
   -2.4845    0.0009   -0.0263 O   0  0  0  0  0  0  0  0  0  0  0  0
   -0.9665    0.0001    1.9445 H   0  0  0  0  0  0  0  0  0  0  0  0
    1.2575   -0.0006    3.1517 H   0  0  0  0  0  0  0  0  0  0  0  0
    3.3557   -0.0008    1.7666 H   0  0  0  0  0  0  0  0  0  0  0  0
   -1.1019   -0.0006   -5.9782 H   0  0  0  0  0  0  0  0  0  0  0  0
   -3.3539   -0.0007   -4.8603 H   0  0  0  0  0  0  0  0  0  0  0  0
   -3.4277    0.0001   -2.3308 H   0  0  0  0  0  0  0  0  0  0  0  0
  1  2  1  0
  1  6  1  0
  1 16  2  0
  2  3  2  0
  2 10  1  0
  3  4  1  0
  3  7  1  0
  4  5  1  0
  4 15  2  0
  5  6  2  0
  5 14  1  0
  6 11  1  0
  7  8  2  0
  8  9  1  0
  8 19  1  0
  9 10  2  0
  9 18  1  0
 10 17  1  0
 11 12  2  0
 11 22  1  0
 12 13  1  0
 12 21  1  0
 13 14  2  0
 13 20  1  0
M  END

