
     RDKit          3D

 23 25  0  0  0  0  0  0  0  0999 V2000
    1.2179    0.0002    3.5916 C   0  0  0  0  0  0  0  0  0  0  0  0
    1.3075    0.0000    2.1546 C   0  0  0  0  0  0  0  0  0  0  0  0
    0.1001   -0.0000    1.4669 C   0  0  0  0  0  0  0  0  0  0  0  0
   -1.1981    0.0001    2.0594 C   0  0  0  0  0  0  0  0  0  0  0  0
   -1.2685    0.0000    3.4519 C   0  0  0  0  0  0  0  0  0  0  0  0
   -0.0296   -0.0000    4.1885 C   0  0  0  0  0  0  0  0  0  0  0  0
   -2.1969    0.0003    0.9523 C   0  0  0  0  0  0  0  0  0  0  0  0
   -1.4676   -0.0003   -0.2906 C   0  0  0  0  0  0  0  0  0  0  0  0
   -0.0372   -0.0002    0.0420 C   0  0  0  0  0  0  0  0  0  0  0  0
    2.5118    0.0000    1.3602 C   0  0  0  0  0  0  0  0  0  0  0  0
    2.4033    0.0000   -0.0230 C   0  0  0  0  0  0  0  0  0  0  0  0
    1.1429   -0.0001   -0.7033 C   0  0  0  0  0  0  0  0  0  0  0  0
   -1.9563   -0.0004   -1.5103 O   0  0  0  0  0  0  0  0  0  0  0  0
   -3.4966    0.0008    1.1102 O   0  0  0  0  0  0  0  0  0  0  0  0
   -2.5789   -0.0001    4.2018 C   0  0  0  0  0  0  0  0  0  0  0  0
    3.4914    0.0001    1.8441 H   0  0  0  0  0  0  0  0  0  0  0  0
    3.3171    0.0001   -0.6244 H   0  0  0  0  0  0  0  0  0  0  0  0
    1.1184   -0.0002   -1.7967 H   0  0  0  0  0  0  0  0  0  0  0  0
    2.1252    0.0003    4.2009 H   0  0  0  0  0  0  0  0  0  0  0  0
   -0.0930    0.0000    5.2817 H   0  0  0  0  0  0  0  0  0  0  0  0
   -3.4135    0.0004    3.4879 H   0  0  0  0  0  0  0  0  0  0  0  0
   -2.6680    0.8838    4.8562 H   0  0  0  0  0  0  0  0  0  0  0  0
   -2.6683   -0.8847    4.8552 H   0  0  0  0  0  0  0  0  0  0  0  0
  1  2  2  0
  1  6  1  0
  1 19  1  0
  2  3  1  0
  2 10  1  0
  3  4  2  0
  3  9  1  0
  4  5  1  0
  4  7  1  0
  5  6  2  0
  5 15  1  0
  6 20  1  0
  7  8  1  0
  7 14  2  0
  8  9  1  0
  8 13  2  0
  9 12  2  0
 10 11  2  0
 10 16  1  0
 11 12  1  0
 11 17  1  0
 12 18  1  0
 15 21  1  0
 15 22  1  0
 15 23  1  0
M  END

