
     RDKit          3D

 23 25  0  0  0  0  0  0  0  0999 V2000
   -1.5158   -0.0001   -0.2783 C   0  0  0  0  0  0  0  0  0  0  0  0
   -0.0677    0.0000    0.0438 C   0  0  0  0  0  0  0  0  0  0  0  0
    0.0741    0.0001    1.4620 C   0  0  0  0  0  0  0  0  0  0  0  0
   -1.2296    0.0001    2.0508 C   0  0  0  0  0  0  0  0  0  0  0  0
   -2.2328    0.0001    0.9703 C   0  0  0  0  0  0  0  0  0  0  0  0
    1.2790    0.0002    2.1568 C   0  0  0  0  0  0  0  0  0  0  0  0
    2.4957    0.0001    1.3657 C   0  0  0  0  0  0  0  0  0  0  0  0
    2.3668   -0.0000   -0.0160 C   0  0  0  0  0  0  0  0  0  0  0  0
    1.1035   -0.0001   -0.6997 C   0  0  0  0  0  0  0  0  0  0  0  0
   -1.2900   -0.0001    3.4434 C   0  0  0  0  0  0  0  0  0  0  0  0
   -0.0689   -0.0000    4.1932 C   0  0  0  0  0  0  0  0  0  0  0  0
    1.1837    0.0003    3.5976 C   0  0  0  0  0  0  0  0  0  0  0  0
   -3.5321    0.0001    1.1591 O   0  0  0  0  0  0  0  0  0  0  0  0
   -2.0025   -0.0001   -1.4928 O   0  0  0  0  0  0  0  0  0  0  0  0
    3.8480   -0.0000    2.0317 C   0  0  0  0  0  0  0  0  0  0  0  0
    3.2796   -0.0001   -0.6200 H   0  0  0  0  0  0  0  0  0  0  0  0
    1.0824   -0.0002   -1.7934 H   0  0  0  0  0  0  0  0  0  0  0  0
    2.0834    0.0004    4.2152 H   0  0  0  0  0  0  0  0  0  0  0  0
   -0.1317   -0.0001    5.2853 H   0  0  0  0  0  0  0  0  0  0  0  0
   -2.2493   -0.0003    3.9686 H   0  0  0  0  0  0  0  0  0  0  0  0
    4.6560    0.0003    1.2867 H   0  0  0  0  0  0  0  0  0  0  0  0
    3.9850    0.8824    2.6782 H   0  0  0  0  0  0  0  0  0  0  0  0
    3.9851   -0.8830    2.6774 H   0  0  0  0  0  0  0  0  0  0  0  0
  1  2  1  0
  1  5  1  0
  1 14  2  0
  2  3  2  0
  2  9  1  0
  3  4  1  0
  3  6  1  0
  4  5  1  0
  4 10  2  0
  5 13  2  0
  6  7  2  0
  6 12  1  0
  7  8  1  0
  7 15  1  0
  8  9  2  0
  8 16  1  0
  9 17  1  0
 10 11  1  0
 10 20  1  0
 11 12  2  0
 11 19  1  0
 12 18  1  0
 15 21  1  0
 15 22  1  0
 15 23  1  0
M  END

