
     RDKit          3D

 24 26  0  0  0  0  0  0  0  0999 V2000
   -1.4782   -0.0008   -0.2527 C   0  0  0  0  0  0  0  0  0  0  0  0
   -0.0503   -0.0005    0.0529 C   0  0  0  0  0  0  0  0  0  0  0  0
    0.1198    0.0003    1.4813 C   0  0  0  0  0  0  0  0  0  0  0  0
   -1.1629    0.0011    2.0924 C   0  0  0  0  0  0  0  0  0  0  0  0
   -2.1885    0.0011    1.0047 C   0  0  0  0  0  0  0  0  0  0  0  0
    1.3476    0.0003    2.1365 C   0  0  0  0  0  0  0  0  0  0  0  0
    2.5344   -0.0001    1.3158 C   0  0  0  0  0  0  0  0  0  0  0  0
    2.3925   -0.0003   -0.0652 C   0  0  0  0  0  0  0  0  0  0  0  0
    1.1174   -0.0006   -0.7146 C   0  0  0  0  0  0  0  0  0  0  0  0
   -1.1762    0.0013    3.4877 C   0  0  0  0  0  0  0  0  0  0  0  0
    0.0668    0.0009    4.2098 C   0  0  0  0  0  0  0  0  0  0  0  0
    1.2955    0.0006    3.5687 C   0  0  0  0  0  0  0  0  0  0  0  0
   -3.4793    0.0027    1.1839 O   0  0  0  0  0  0  0  0  0  0  0  0
   -1.9981   -0.0021   -1.4626 O   0  0  0  0  0  0  0  0  0  0  0  0
    3.5240    0.0001    1.7786 H   0  0  0  0  0  0  0  0  0  0  0  0
    3.2915   -0.0004   -0.6885 H   0  0  0  0  0  0  0  0  0  0  0  0
    1.0684   -0.0009   -1.8074 H   0  0  0  0  0  0  0  0  0  0  0  0
    2.2156    0.0006    4.1580 H   0  0  0  0  0  0  0  0  0  0  0  0
    0.0497    0.0010    5.2994 H   0  0  0  0  0  0  0  0  0  0  0  0
   -2.4004    0.0021    4.1274 O   0  0  0  0  0  0  0  0  0  0  0  0
   -2.4199   -0.0010    5.5588 C   0  0  0  0  0  0  0  0  0  0  0  0
   -3.4792   -0.0016    5.8408 H   0  0  0  0  0  0  0  0  0  0  0  0
   -1.9350   -0.9009    5.9728 H   0  0  0  0  0  0  0  0  0  0  0  0
   -1.9351    0.8972    5.9767 H   0  0  0  0  0  0  0  0  0  0  0  0
  1  2  1  0
  1  5  1  0
  1 14  2  0
  2  3  2  0
  2  9  1  0
  3  4  1  0
  3  6  1  0
  4  5  1  0
  4 10  2  0
  5 13  2  0
  6  7  2  0
  6 12  1  0
  7  8  1  0
  7 15  1  0
  8  9  2  0
  8 16  1  0
  9 17  1  0
 10 11  1  0
 10 20  1  0
 11 12  2  0
 11 19  1  0
 12 18  1  0
 20 21  1  0
 21 22  1  0
 21 23  1  0
 21 24  1  0
M  END

