
     RDKit          3D

 28 30  0  0  0  0  0  0  0  0999 V2000
    2.2592    4.1181    1.0541 C   0  0  0  0  0  0  0  0  0  0  0  0
    1.0268    3.4308    0.8216 O   0  0  0  0  0  0  0  0  0  0  0  0
    1.0760    2.0910    0.4806 C   0  0  0  0  0  0  0  0  0  0  0  0
   -0.1394    1.4288    0.2709 C   0  0  0  0  0  0  0  0  0  0  0  0
   -1.5678    1.7965    0.3164 C   0  0  0  0  0  0  0  0  0  0  0  0
   -2.0553    2.9803    0.5996 O   0  0  0  0  0  0  0  0  0  0  0  0
   -2.3277    0.6095   -0.0090 C   0  0  0  0  0  0  0  0  0  0  0  0
   -3.6336    0.5145   -0.0761 O   0  0  0  0  0  0  0  0  0  0  0  0
   -1.3599   -0.4774   -0.2533 C   0  0  0  0  0  0  0  0  0  0  0  0
   -1.4362   -1.8316   -0.5994 C   0  0  0  0  0  0  0  0  0  0  0  0
   -2.6941   -2.3796   -0.7760 O   0  0  0  0  0  0  0  0  0  0  0  0
   -2.7880   -3.7586   -1.1445 C   0  0  0  0  0  0  0  0  0  0  0  0
   -0.2383   -2.6035   -0.7590 C   0  0  0  0  0  0  0  0  0  0  0  0
    1.0255   -2.0582   -0.5797 C   0  0  0  0  0  0  0  0  0  0  0  0
    1.1469   -0.6754   -0.2228 C   0  0  0  0  0  0  0  0  0  0  0  0
    2.3693    0.0398   -0.0011 C   0  0  0  0  0  0  0  0  0  0  0  0
    2.3158    1.3843    0.3406 C   0  0  0  0  0  0  0  0  0  0  0  0
   -0.0381    0.0439   -0.0782 C   0  0  0  0  0  0  0  0  0  0  0  0
    2.8249    3.6743    1.8910 H   0  0  0  0  0  0  0  0  0  0  0  0
    2.8975    4.1323    0.1546 H   0  0  0  0  0  0  0  0  0  0  0  0
    1.9821    5.1466    1.3141 H   0  0  0  0  0  0  0  0  0  0  0  0
   -2.3530   -4.4198   -0.3758 H   0  0  0  0  0  0  0  0  0  0  0  0
   -2.2976   -3.9588   -2.1122 H   0  0  0  0  0  0  0  0  0  0  0  0
   -3.8602   -3.9702   -1.2345 H   0  0  0  0  0  0  0  0  0  0  0  0
   -0.3161   -3.6562   -1.0302 H   0  0  0  0  0  0  0  0  0  0  0  0
    1.9146   -2.6787   -0.7106 H   0  0  0  0  0  0  0  0  0  0  0  0
    3.3337   -0.4636   -0.0984 H   0  0  0  0  0  0  0  0  0  0  0  0
    3.2528    1.9156    0.5064 H   0  0  0  0  0  0  0  0  0  0  0  0
  1  2  1  0
  1 19  1  0
  1 20  1  0
  1 21  1  0
  2  3  1  0
  3  4  2  0
  3 17  1  0
  4  5  1  0
  4 18  1  0
  5  6  2  0
  5  7  1  0
  7  8  2  0
  7  9  1  0
  9 10  1  0
  9 18  2  0
 10 11  1  0
 10 13  2  0
 11 12  1  0
 12 22  1  0
 12 23  1  0
 12 24  1  0
 13 14  1  0
 13 25  1  0
 14 15  2  0
 14 26  1  0
 15 16  1  0
 15 18  1  0
 16 17  2  0
 16 27  1  0
 17 28  1  0
M  END

