
     RDKit          3D

 18 20  0  0  0  0  0  0  0  0999 V2000
    3.6622   -0.8493   -0.3940 O   0  0  0  0  0  0  0  0  0  0  0  0
    2.5159   -0.2623   -0.2397 C   0  0  0  0  0  0  0  0  0  0  0  0
    2.2612    1.1558   -0.0795 C   0  0  0  0  0  0  0  0  0  0  0  0
    3.1284    2.1200   -0.0587 O   0  0  0  0  0  0  0  0  0  0  0  0
    0.7933    1.3238    0.0614 C   0  0  0  0  0  0  0  0  0  0  0  0
    0.0440    2.4195    0.2319 N   0  0  0  0  0  0  0  0  0  0  0  0
   -1.3293    2.1874    0.3262 C   0  0  0  0  0  0  0  0  0  0  0  0
   -1.9657    0.9651    0.2614 C   0  0  0  0  0  0  0  0  0  0  0  0
   -1.1519   -0.2155    0.0768 C   0  0  0  0  0  0  0  0  0  0  0  0
    0.1962    0.0366   -0.0135 C   0  0  0  0  0  0  0  0  0  0  0  0
    1.2019   -0.9509   -0.1955 C   0  0  0  0  0  0  0  0  0  0  0  0
    0.8813   -2.2469   -0.2941 N   0  0  0  0  0  0  0  0  0  0  0  0
   -0.4839   -2.5266   -0.2053 C   0  0  0  0  0  0  0  0  0  0  0  0
   -1.5033   -1.6140   -0.0296 C   0  0  0  0  0  0  0  0  0  0  0  0
   -1.9287    3.0922    0.4657 H   0  0  0  0  0  0  0  0  0  0  0  0
   -3.0521    0.9069    0.3490 H   0  0  0  0  0  0  0  0  0  0  0  0
   -0.7301   -3.5895   -0.2878 H   0  0  0  0  0  0  0  0  0  0  0  0
   -2.5394   -1.9525    0.0253 H   0  0  0  0  0  0  0  0  0  0  0  0
  1  2  2  0
  2  3  1  0
  2 11  1  0
  3  4  2  0
  3  5  1  0
  5  6  2  0
  5 10  1  0
  6  7  1  0
  7  8  2  0
  7 15  1  0
  8  9  1  0
  8 16  1  0
  9 10  2  0
  9 14  1  0
 10 11  1  0
 11 12  2  0
 12 13  1  0
 13 14  2  0
 13 17  1  0
 14 18  1  0
M  END

