
     RDKit          3D

 12 12  0  0  0  0  0  0  0  0999 V2000
   -0.0946    0.0001   -0.0547 C   0  0  0  0  0  0  0  0  0  0  0  0
    0.0214    0.0001    1.3674 C   0  0  0  0  0  0  0  0  0  0  0  0
    1.2299   -0.0001    2.0652 C   0  0  0  0  0  0  0  0  0  0  0  0
    2.5194   -0.0000    1.4547 C   0  0  0  0  0  0  0  0  0  0  0  0
    2.4035   -0.0000    0.0326 C   0  0  0  0  0  0  0  0  0  0  0  0
    1.1950    0.0000   -0.6652 C   0  0  0  0  0  0  0  0  0  0  0  0
   -1.1472    0.0003    2.1049 F   0  0  0  0  0  0  0  0  0  0  0  0
    1.1764   -0.0004    3.4462 F   0  0  0  0  0  0  0  0  0  0  0  0
    3.6489    0.0002    2.1076 O   0  0  0  0  0  0  0  0  0  0  0  0
    3.5720    0.0003   -0.7049 F   0  0  0  0  0  0  0  0  0  0  0  0
    1.2484   -0.0004   -2.0461 F   0  0  0  0  0  0  0  0  0  0  0  0
   -1.2240   -0.0001   -0.7077 O   0  0  0  0  0  0  0  0  0  0  0  0
  1  2  1  0
  1  6  1  0
  1 12  2  0
  2  3  2  0
  2  7  1  0
  3  4  1  0
  3  8  1  0
  4  5  1  0
  4  9  2  0
  5  6  2  0
  5 10  1  0
  6 11  1  0
M  END

