
     RDKit          3D

 64 70  0  0  0  0  0  0  0  0999 V2000
    7.2035    6.8536    9.1015 C   0  0  0  0  0  0  0  0  0  0  0  0
    8.1194    7.8028    6.9676 C   0  0  0  0  0  0  0  0  0  0  0  0
    6.9521    8.6503    6.5524 N   0  0  0  0  0  0  0  0  0  0  0  0
    7.0412    9.2288    5.2041 C   0  0  0  0  0  0  0  0  0  0  0  0
    6.0993    8.4513    4.2889 C   0  0  0  0  0  0  0  0  0  0  0  0
    4.6794    8.6657    4.8047 C   0  0  0  0  0  0  0  0  0  0  0  0
    4.6405    8.8203    6.2713 N   0  0  0  0  0  0  0  0  0  0  0  0
    3.3171    8.9243    6.8948 C   0  0  0  0  0  0  0  0  0  0  0  0
    3.1513    7.7555    7.8621 C   0  0  0  0  0  0  0  0  0  0  0  0
    4.2216    7.8777    8.9383 C   0  0  0  0  0  0  0  0  0  0  0  0
    5.4912    8.4164    8.4027 N   0  0  0  0  0  0  0  0  0  0  0  0
    6.6475    8.2311    9.3161 C   0  0  0  0  0  0  0  0  0  0  0  0
    5.7043    8.5822    7.0787 C   0  0  0  0  0  0  0  0  0  0  0  0
    8.8746    8.4844    7.3982 H   0  0  0  0  0  0  0  0  0  0  0  0
    8.5353    7.3806    6.0403 H   0  0  0  0  0  0  0  0  0  0  0  0
    6.7614   10.2939    5.2394 H   0  0  0  0  0  0  0  0  0  0  0  0
    8.0850    9.1657    4.8794 H   0  0  0  0  0  0  0  0  0  0  0  0
    6.1694    8.7867    3.2457 H   0  0  0  0  0  0  0  0  0  0  0  0
    6.3799    7.3880    4.3236 H   0  0  0  0  0  0  0  0  0  0  0  0
    4.2521    9.5842    4.3747 H   0  0  0  0  0  0  0  0  0  0  0  0
    4.0216    7.8282    4.5219 H   0  0  0  0  0  0  0  0  0  0  0  0
    3.2309    9.8866    7.4251 H   0  0  0  0  0  0  0  0  0  0  0  0
    2.5679    8.9092    6.0952 H   0  0  0  0  0  0  0  0  0  0  0  0
    2.1555    7.7562    8.3241 H   0  0  0  0  0  0  0  0  0  0  0  0
    3.2621    6.8155    7.3002 H   0  0  0  0  0  0  0  0  0  0  0  0
    3.8935    8.5695    9.7294 H   0  0  0  0  0  0  0  0  0  0  0  0
    4.4435    6.9100    9.4157 H   0  0  0  0  0  0  0  0  0  0  0  0
    7.3672    9.0389    9.1205 H   0  0  0  0  0  0  0  0  0  0  0  0
    6.2629    8.3395   10.3380 H   0  0  0  0  0  0  0  0  0  0  0  0
    8.7167    5.1004    6.2174 O   0  0  0  0  0  0  0  0  0  0  0  0
    7.2060    4.4942    9.5399 C   0  0  0  0  0  0  0  0  0  0  0  0
    7.8436    4.2756    8.3072 C   0  0  0  0  0  0  0  0  0  0  0  0
    8.1774    5.3241    7.3892 C   0  0  0  0  0  0  0  0  0  0  0  0
    6.8497    3.3195   10.4024 C   0  0  0  0  0  0  0  0  0  0  0  0
    5.9531    2.2781    9.7989 N   0  0  0  0  0  0  0  0  0  0  0  0
    5.0234    1.6270   10.7332 C   0  0  0  0  0  0  0  0  0  0  0  0
    3.6243    2.1797   10.4751 C   0  0  0  0  0  0  0  0  0  0  0  0
    3.2289    1.7793    9.0566 C   0  0  0  0  0  0  0  0  0  0  0  0
    4.3950    1.7158    8.1548 N   0  0  0  0  0  0  0  0  0  0  0  0
    4.1256    1.4471    6.7383 C   0  0  0  0  0  0  0  0  0  0  0  0
    4.6049    2.6466    5.9255 C   0  0  0  0  0  0  0  0  0  0  0  0
    6.1078    2.7832    6.1286 C   0  0  0  0  0  0  0  0  0  0  0  0
    6.5202    2.4129    7.5011 N   0  0  0  0  0  0  0  0  0  0  0  0
    7.8982    2.8484    7.8453 C   0  0  0  0  0  0  0  0  0  0  0  0
    5.6247    2.1838    8.4868 C   0  0  0  0  0  0  0  0  0  0  0  0
    7.7421    2.7936   10.7857 H   0  0  0  0  0  0  0  0  0  0  0  0
    6.3028    3.7293   11.2647 H   0  0  0  0  0  0  0  0  0  0  0  0
    5.0476    0.5361   10.5794 H   0  0  0  0  0  0  0  0  0  0  0  0
    5.3713    1.8316   11.7508 H   0  0  0  0  0  0  0  0  0  0  0  0
    2.8889    1.7875   11.1901 H   0  0  0  0  0  0  0  0  0  0  0  0
    3.6567    3.2740   10.5867 H   0  0  0  0  0  0  0  0  0  0  0  0
    2.7698    0.7791    9.0559 H   0  0  0  0  0  0  0  0  0  0  0  0
    2.4941    2.4833    8.6334 H   0  0  0  0  0  0  0  0  0  0  0  0
    4.6507    0.5290    6.4282 H   0  0  0  0  0  0  0  0  0  0  0  0
    3.0489    1.2757    6.6282 H   0  0  0  0  0  0  0  0  0  0  0  0
    4.3827    2.5218    4.8577 H   0  0  0  0  0  0  0  0  0  0  0  0
    4.0752    3.5445    6.2782 H   0  0  0  0  0  0  0  0  0  0  0  0
    6.6505    2.1129    5.4446 H   0  0  0  0  0  0  0  0  0  0  0  0
    6.4618    3.8086    5.9376 H   0  0  0  0  0  0  0  0  0  0  0  0
    8.2965    2.1510    8.5966 H   0  0  0  0  0  0  0  0  0  0  0  0
    8.4956    2.7584    6.9295 H   0  0  0  0  0  0  0  0  0  0  0  0
    6.8399    5.8022   10.0047 C   0  0  0  0  0  0  0  0  0  0  0  0
    7.8294    6.6339    7.8628 C   0  0  0  0  0  0  0  0  0  0  0  0
    6.2027    6.0172   11.1282 O   0  0  0  0  0  0  0  0  0  0  0  0
  1 12  1  0
  1 62  2  0
  1 63  1  0
  2  3  1  0
  2 14  1  0
  2 15  1  0
  2 63  1  0
  3  4  1  0
  3 13  1  0
  4  5  1  0
  4 16  1  0
  4 17  1  0
  5  6  1  0
  5 18  1  0
  5 19  1  0
  6  7  1  0
  6 20  1  0
  6 21  1  0
  7  8  1  0
  7 13  1  0
  8  9  1  0
  8 22  1  0
  8 23  1  0
  9 10  1  0
  9 24  1  0
  9 25  1  0
 10 11  1  0
 10 26  1  0
 10 27  1  0
 11 12  1  0
 11 13  2  0
 12 28  1  0
 12 29  1  0
 30 33  1  0
 31 32  2  0
 31 34  1  0
 31 62  1  0
 32 33  1  0
 32 44  1  0
 33 63  2  0
 34 35  1  0
 34 46  1  0
 34 47  1  0
 35 36  1  0
 35 45  1  0
 36 37  1  0
 36 48  1  0
 36 49  1  0
 37 38  1  0
 37 50  1  0
 37 51  1  0
 38 39  1  0
 38 52  1  0
 38 53  1  0
 39 40  1  0
 39 45  1  0
 40 41  1  0
 40 54  1  0
 40 55  1  0
 41 42  1  0
 41 56  1  0
 41 57  1  0
 42 43  1  0
 42 58  1  0
 42 59  1  0
 43 44  1  0
 43 45  2  0
 44 60  1  0
 44 61  1  0
 62 64  1  0
M  CHG  4  11   1  30  -1  43   1  64  -1
M  END

