
     RDKit          3D

 24 24  0  0  0  0  0  0  0  0999 V2000
   -0.0093    0.0637   -0.1613 C   0  0  0  0  0  0  0  0  0  0  0  0
   -0.0758    0.0672    1.3004 C   0  0  0  0  0  0  0  0  0  0  0  0
    1.1037    0.0633    2.0749 C   0  0  0  0  0  0  0  0  0  0  0  0
    2.4342    0.0725    1.5616 C   0  0  0  0  0  0  0  0  0  0  0  0
    2.5010    0.0652    0.0999 C   0  0  0  0  0  0  0  0  0  0  0  0
    1.3210    0.0535   -0.6745 C   0  0  0  0  0  0  0  0  0  0  0  0
   -1.3822    0.0787    1.9733 C   0  0  0  0  0  0  0  0  0  0  0  0
    1.0213    0.0698    3.1635 H   0  0  0  0  0  0  0  0  0  0  0  0
    3.4588    0.0745    2.3519 O   0  0  0  0  0  0  0  0  0  0  0  0
    3.8073    0.0732   -0.5728 C   0  0  0  0  0  0  0  0  0  0  0  0
    1.4032    0.0511   -1.7630 H   0  0  0  0  0  0  0  0  0  0  0  0
   -1.0346    0.0558   -0.9509 O   0  0  0  0  0  0  0  0  0  0  0  0
    3.7097   -0.1674   -1.9343 O   0  0  0  0  0  0  0  0  0  0  0  0
    4.9119    0.2646   -0.0628 O   0  0  0  0  0  0  0  0  0  0  0  0
    4.9576   -0.1274   -2.6542 C   0  0  0  0  0  0  0  0  0  0  0  0
    4.6986   -0.3257   -3.7002 H   0  0  0  0  0  0  0  0  0  0  0  0
    5.4359    0.8584   -2.5618 H   0  0  0  0  0  0  0  0  0  0  0  0
    5.6524   -0.8947   -2.2837 H   0  0  0  0  0  0  0  0  0  0  0  0
   -1.2865   -0.1798    3.3313 O   0  0  0  0  0  0  0  0  0  0  0  0
   -2.4846    0.2869    1.4655 O   0  0  0  0  0  0  0  0  0  0  0  0
   -2.5331   -0.1322    4.0533 C   0  0  0  0  0  0  0  0  0  0  0  0
   -2.2754   -0.3448    5.0967 H   0  0  0  0  0  0  0  0  0  0  0  0
   -2.9992    0.8603    3.9718 H   0  0  0  0  0  0  0  0  0  0  0  0
   -3.2376   -0.8869    3.6754 H   0  0  0  0  0  0  0  0  0  0  0  0
  1  2  1  0
  1  6  1  0
  1 12  2  0
  2  3  2  0
  2  7  1  0
  3  4  1  0
  3  8  1  0
  4  5  1  0
  4  9  2  0
  5  6  2  0
  5 10  1  0
  6 11  1  0
  7 19  1  0
  7 20  2  0
 10 13  1  0
 10 14  2  0
 13 15  1  0
 15 16  1  0
 15 17  1  0
 15 18  1  0
 19 21  1  0
 21 22  1  0
 21 23  1  0
 21 24  1  0
M  END

