
     RDKit          3D

 22 22  0  0  0  0  0  0  0  0999 V2000
   -0.0418   -0.1793   -0.0603 C   0  0  0  0  0  0  0  0  0  0  0  0
   -0.0227   -0.1636    1.3740 C   0  0  0  0  0  0  0  0  0  0  0  0
    1.1896   -0.1731    2.0889 C   0  0  0  0  0  0  0  0  0  0  0  0
    2.4667   -0.1785    1.4605 C   0  0  0  0  0  0  0  0  0  0  0  0
    2.4475   -0.1638    0.0261 C   0  0  0  0  0  0  0  0  0  0  0  0
    1.2353   -0.1741   -0.6887 C   0  0  0  0  0  0  0  0  0  0  0  0
   -1.2992   -0.1176    2.0050 N   0  0  0  0  0  0  0  0  0  0  0  0
    1.1764   -0.1900    3.1844 H   0  0  0  0  0  0  0  0  0  0  0  0
    3.6175   -0.2062    2.1231 O   0  0  0  0  0  0  0  0  0  0  0  0
    3.7240   -0.1179   -0.6049 N   0  0  0  0  0  0  0  0  0  0  0  0
    1.2485   -0.1916   -1.7842 H   0  0  0  0  0  0  0  0  0  0  0  0
   -1.1926   -0.2076   -0.7229 O   0  0  0  0  0  0  0  0  0  0  0  0
    4.3994   -0.3651    0.1293 H   0  0  0  0  0  0  0  0  0  0  0  0
    3.9091   -0.8972   -1.8242 C   0  0  0  0  0  0  0  0  0  0  0  0
   -1.9744   -0.3648    1.2707 H   0  0  0  0  0  0  0  0  0  0  0  0
   -1.4843   -0.8974    3.2241 C   0  0  0  0  0  0  0  0  0  0  0  0
    4.9780   -0.9234   -2.0803 H   0  0  0  0  0  0  0  0  0  0  0  0
    3.5399   -1.9416   -1.7403 H   0  0  0  0  0  0  0  0  0  0  0  0
    3.3792   -0.4328   -2.6704 H   0  0  0  0  0  0  0  0  0  0  0  0
   -2.5531   -0.9235    3.4804 H   0  0  0  0  0  0  0  0  0  0  0  0
   -1.1154   -1.9419    3.1396 H   0  0  0  0  0  0  0  0  0  0  0  0
   -0.9541   -0.4336    4.0703 H   0  0  0  0  0  0  0  0  0  0  0  0
  1  2  1  0
  1  6  1  0
  1 12  2  0
  2  3  2  0
  2  7  1  0
  3  4  1  0
  3  8  1  0
  4  5  1  0
  4  9  2  0
  5  6  2  0
  5 10  1  0
  6 11  1  0
  7 15  1  0
  7 16  1  0
 10 13  1  0
 10 14  1  0
 14 17  1  0
 14 18  1  0
 14 19  1  0
 16 20  1  0
 16 21  1  0
 16 22  1  0
M  END

