
     RDKit          3D

 40 42  0  0  0  0  0  0  0  0999 V2000
    0.1734   -0.0813   -0.3622 C   0  0  0  0  0  0  0  0  0  0  0  0
   -0.1447    0.1006    1.0335 C   0  0  0  0  0  0  0  0  0  0  0  0
    0.8495    0.1471    2.0201 C   0  0  0  0  0  0  0  0  0  0  0  0
    2.2524    0.0807    1.7629 C   0  0  0  0  0  0  0  0  0  0  0  0
    2.5705   -0.1013    0.3672 C   0  0  0  0  0  0  0  0  0  0  0  0
    1.5763   -0.1478   -0.6195 C   0  0  0  0  0  0  0  0  0  0  0  0
   -1.6071    0.2034    1.3491 C   0  0  0  0  0  0  0  0  0  0  0  0
    0.3856    0.3187    3.7263 Cl  0  0  0  0  0  0  0  0  0  0  0  0
    3.1757    0.1849    2.6719 O   0  0  0  0  0  0  0  0  0  0  0  0
    4.0329   -0.2038    0.0515 C   0  0  0  0  0  0  0  0  0  0  0  0
    2.0401   -0.3195   -2.3256 Cl  0  0  0  0  0  0  0  0  0  0  0  0
   -0.7500   -0.1855   -1.2712 O   0  0  0  0  0  0  0  0  0  0  0  0
    4.2309   -0.7116   -0.8972 H   0  0  0  0  0  0  0  0  0  0  0  0
    4.6571    1.1407   -0.0542 N   0  0  0  0  0  0  0  0  0  0  0  0
    4.5518   -0.7228    0.8671 H   0  0  0  0  0  0  0  0  0  0  0  0
    4.9913    1.8044   -1.2190 C   0  0  0  0  0  0  0  0  0  0  0  0
    5.4344    3.0479   -0.8566 C   0  0  0  0  0  0  0  0  0  0  0  0
    5.3531    3.1179    0.5233 N   0  0  0  0  0  0  0  0  0  0  0  0
    4.8792    1.9518    0.9924 C   0  0  0  0  0  0  0  0  0  0  0  0
    4.6252    1.6837    2.0167 H   0  0  0  0  0  0  0  0  0  0  0  0
    5.7283    4.2712    1.3413 C   0  0  0  0  0  0  0  0  0  0  0  0
    5.8001    3.8753   -1.4517 H   0  0  0  0  0  0  0  0  0  0  0  0
    4.8826    1.3417   -2.1918 H   0  0  0  0  0  0  0  0  0  0  0  0
    5.5313    4.0360    2.3913 H   0  0  0  0  0  0  0  0  0  0  0  0
    6.7944    4.4852    1.2041 H   0  0  0  0  0  0  0  0  0  0  0  0
    5.1323    5.1398    1.0393 H   0  0  0  0  0  0  0  0  0  0  0  0
   -1.8050    0.7111    2.2979 H   0  0  0  0  0  0  0  0  0  0  0  0
   -2.1259    0.7229    0.5336 H   0  0  0  0  0  0  0  0  0  0  0  0
   -2.2318   -1.1408    1.4543 N   0  0  0  0  0  0  0  0  0  0  0  0
   -2.5659   -1.8049    2.6190 C   0  0  0  0  0  0  0  0  0  0  0  0
   -3.0100   -3.0480    2.2562 C   0  0  0  0  0  0  0  0  0  0  0  0
   -2.9293   -3.1173    0.8762 N   0  0  0  0  0  0  0  0  0  0  0  0
   -2.4547   -1.9513    0.4074 C   0  0  0  0  0  0  0  0  0  0  0  0
   -2.2008   -1.6830   -0.6167 H   0  0  0  0  0  0  0  0  0  0  0  0
   -3.3049   -4.2703    0.0579 C   0  0  0  0  0  0  0  0  0  0  0  0
   -3.3759   -3.8754    2.8511 H   0  0  0  0  0  0  0  0  0  0  0  0
   -2.4567   -1.3427    3.5919 H   0  0  0  0  0  0  0  0  0  0  0  0
   -3.1123   -4.0331   -0.9925 H   0  0  0  0  0  0  0  0  0  0  0  0
   -2.7061   -5.1382    0.3564 H   0  0  0  0  0  0  0  0  0  0  0  0
   -4.3701   -4.4865    0.1986 H   0  0  0  0  0  0  0  0  0  0  0  0
  1  2  2  0
  1  6  1  0
  1 12  1  0
  2  3  1  0
  2  7  1  0
  3  4  2  0
  3  8  1  0
  4  5  1  0
  4  9  1  0
  5  6  2  0
  5 10  1  0
  6 11  1  0
  7 27  1  0
  7 28  1  0
  7 29  1  0
 10 13  1  0
 10 14  1  0
 10 15  1  0
 14 16  1  0
 14 19  1  0
 16 17  2  0
 16 23  1  0
 17 18  1  0
 17 22  1  0
 18 19  2  0
 18 21  1  0
 19 20  1  0
 21 24  1  0
 21 25  1  0
 21 26  1  0
 29 30  1  0
 29 33  1  0
 30 31  2  0
 30 37  1  0
 31 32  1  0
 31 36  1  0
 32 33  2  0
 32 35  1  0
 33 34  1  0
 35 38  1  0
 35 39  1  0
 35 40  1  0
M  CHG  4   9  -1  12  -1  18   1  32   1
M  END

