
     RDKit          3D

 42 44  0  0  0  0  0  0  0  0999 V2000
   -0.0073   -0.2254   -0.1162 C   0  0  0  0  0  0  0  0  0  0  0  0
   -0.0713   -0.0900    1.3130 C   0  0  0  0  0  0  0  0  0  0  0  0
    1.1061    0.0811    2.0596 C   0  0  0  0  0  0  0  0  0  0  0  0
    2.4319    0.2248    1.5162 C   0  0  0  0  0  0  0  0  0  0  0  0
    2.4960    0.0896    0.0870 C   0  0  0  0  0  0  0  0  0  0  0  0
    1.3186   -0.0815   -0.6597 C   0  0  0  0  0  0  0  0  0  0  0  0
   -1.4347   -0.0780    1.9474 C   0  0  0  0  0  0  0  0  0  0  0  0
    3.4717    0.4415    2.2632 O   0  0  0  0  0  0  0  0  0  0  0  0
    3.8595    0.0777   -0.5472 C   0  0  0  0  0  0  0  0  0  0  0  0
   -1.0469   -0.4426   -0.8631 O   0  0  0  0  0  0  0  0  0  0  0  0
   -1.6218   -0.9805    2.5567 H   0  0  0  0  0  0  0  0  0  0  0  0
   -1.5774    1.1040    2.7802 O   0  0  0  0  0  0  0  0  0  0  0  0
   -2.1769   -0.0743    1.1323 H   0  0  0  0  0  0  0  0  0  0  0  0
   -2.3645    0.9676    3.3366 H   0  0  0  0  0  0  0  0  0  0  0  0
    4.0470    0.9806   -1.1558 H   0  0  0  0  0  0  0  0  0  0  0  0
    4.6015    0.0732    0.2681 H   0  0  0  0  0  0  0  0  0  0  0  0
    4.0022   -1.1037   -1.3809 O   0  0  0  0  0  0  0  0  0  0  0  0
    4.7909   -0.9679   -1.9352 H   0  0  0  0  0  0  0  0  0  0  0  0
    1.0392    0.0780    3.4929 N   0  0  0  0  0  0  0  0  0  0  0  0
    0.4878   -0.9064    4.3017 C   0  0  0  0  0  0  0  0  0  0  0  0
    0.7506   -0.5633    5.5973 C   0  0  0  0  0  0  0  0  0  0  0  0
    1.4705    0.6200    5.5631 N   0  0  0  0  0  0  0  0  0  0  0  0
    1.6440    0.9831    4.2812 C   0  0  0  0  0  0  0  0  0  0  0  0
    2.1707    1.8615    3.9371 H   0  0  0  0  0  0  0  0  0  0  0  0
    1.9779    1.3417    6.7284 C   0  0  0  0  0  0  0  0  0  0  0  0
    0.4996   -1.0543    6.5291 H   0  0  0  0  0  0  0  0  0  0  0  0
   -0.0238   -1.7644    3.8879 H   0  0  0  0  0  0  0  0  0  0  0  0
    2.4857    2.2490    6.3878 H   0  0  0  0  0  0  0  0  0  0  0  0
    1.1418    1.6119    7.3835 H   0  0  0  0  0  0  0  0  0  0  0  0
    2.6862    0.7068    7.2735 H   0  0  0  0  0  0  0  0  0  0  0  0
    1.3855   -0.0782   -2.0930 N   0  0  0  0  0  0  0  0  0  0  0  0
    1.9383    0.9055   -2.9016 C   0  0  0  0  0  0  0  0  0  0  0  0
    1.6757    0.5627   -4.1972 C   0  0  0  0  0  0  0  0  0  0  0  0
    0.9545   -0.6198   -4.1633 N   0  0  0  0  0  0  0  0  0  0  0  0
    0.7799   -0.9826   -2.8815 C   0  0  0  0  0  0  0  0  0  0  0  0
    0.2514   -1.8599   -2.5376 H   0  0  0  0  0  0  0  0  0  0  0  0
    0.4460   -1.3405   -5.3288 C   0  0  0  0  0  0  0  0  0  0  0  0
    1.9277    1.0534   -5.1290 H   0  0  0  0  0  0  0  0  0  0  0  0
    2.4510    1.7628   -2.4877 H   0  0  0  0  0  0  0  0  0  0  0  0
   -0.0576   -2.2503   -4.9888 H   0  0  0  0  0  0  0  0  0  0  0  0
   -0.2660   -0.7068   -5.8706 H   0  0  0  0  0  0  0  0  0  0  0  0
    1.2812   -1.6064   -5.9867 H   0  0  0  0  0  0  0  0  0  0  0  0
  1  2  2  0
  1  6  1  0
  1 10  1  0
  2  3  1  0
  2  7  1  0
  3  4  2  0
  3 19  1  0
  4  5  1  0
  4  8  1  0
  5  6  2  0
  5  9  1  0
  6 31  1  0
  7 11  1  0
  7 12  1  0
  7 13  1  0
  9 15  1  0
  9 16  1  0
  9 17  1  0
 12 14  1  0
 17 18  1  0
 19 20  1  0
 19 23  1  0
 20 21  2  0
 20 27  1  0
 21 22  1  0
 21 26  1  0
 22 23  2  0
 22 25  1  0
 23 24  1  0
 25 28  1  0
 25 29  1  0
 25 30  1  0
 31 32  1  0
 31 35  1  0
 32 33  2  0
 32 39  1  0
 33 34  1  0
 33 38  1  0
 34 35  2  0
 34 37  1  0
 35 36  1  0
 37 40  1  0
 37 41  1  0
 37 42  1  0
M  CHG  4   8  -1  10  -1  22   1  34   1
M  END

