
     RDKit          3D

 38 40  0  0  0  0  0  0  0  0999 V2000
   -0.0324    0.2825   -0.1067 C   0  0  0  0  0  0  0  0  0  0  0  0
   -0.0199    0.1166    1.3420 C   0  0  0  0  0  0  0  0  0  0  0  0
    1.1453   -0.1063    2.0859 C   0  0  0  0  0  0  0  0  0  0  0  0
    2.4575   -0.2833    1.5065 C   0  0  0  0  0  0  0  0  0  0  0  0
    2.4451   -0.1168    0.0579 C   0  0  0  0  0  0  0  0  0  0  0  0
    1.2798    0.1061   -0.6860 C   0  0  0  0  0  0  0  0  0  0  0  0
   -1.3030    0.0467    1.9996 N   0  0  0  0  0  0  0  0  0  0  0  0
    3.4913   -0.4703    2.2128 O   0  0  0  0  0  0  0  0  0  0  0  0
    3.7283   -0.0462   -0.5994 N   0  0  0  0  0  0  0  0  0  0  0  0
   -1.0664    0.4687   -0.8129 O   0  0  0  0  0  0  0  0  0  0  0  0
   -1.4937   -0.8568    2.8458 O   0  0  0  0  0  0  0  0  0  0  0  0
   -2.1746    0.8762    1.6823 O   0  0  0  0  0  0  0  0  0  0  0  0
    3.9185    0.8575   -1.4457 O   0  0  0  0  0  0  0  0  0  0  0  0
    4.6004   -0.8750   -0.2820 O   0  0  0  0  0  0  0  0  0  0  0  0
    1.1020   -0.0544    3.5073 N   0  0  0  0  0  0  0  0  0  0  0  0
    1.3232    0.0544   -2.1074 N   0  0  0  0  0  0  0  0  0  0  0  0
    0.4742    0.9203    4.2775 C   0  0  0  0  0  0  0  0  0  0  0  0
    0.7519    0.6386    5.5822 C   0  0  0  0  0  0  0  0  0  0  0  0
    1.5462   -0.4967    5.5940 N   0  0  0  0  0  0  0  0  0  0  0  0
    1.7531   -0.8988    4.3330 C   0  0  0  0  0  0  0  0  0  0  0  0
    2.3279   -1.7609    4.0266 H   0  0  0  0  0  0  0  0  0  0  0  0
    2.0874   -1.1420    6.7904 C   0  0  0  0  0  0  0  0  0  0  0  0
    0.4636    1.1459    6.4942 H   0  0  0  0  0  0  0  0  0  0  0  0
   -0.0961    1.7240    3.8299 H   0  0  0  0  0  0  0  0  0  0  0  0
    2.6525   -2.0283    6.4877 H   0  0  0  0  0  0  0  0  0  0  0  0
    2.7494   -0.4416    7.3124 H   0  0  0  0  0  0  0  0  0  0  0  0
    1.2614   -1.4354    7.4476 H   0  0  0  0  0  0  0  0  0  0  0  0
    1.9514   -0.9198   -2.8778 C   0  0  0  0  0  0  0  0  0  0  0  0
    1.6733   -0.6382   -4.1825 C   0  0  0  0  0  0  0  0  0  0  0  0
    0.8783    0.4966   -4.1940 N   0  0  0  0  0  0  0  0  0  0  0  0
    0.6714    0.8985   -2.9329 C   0  0  0  0  0  0  0  0  0  0  0  0
    0.0961    1.7602   -2.6263 H   0  0  0  0  0  0  0  0  0  0  0  0
    0.3367    1.1419   -5.3902 C   0  0  0  0  0  0  0  0  0  0  0  0
    1.9618   -1.1453   -5.0945 H   0  0  0  0  0  0  0  0  0  0  0  0
    2.5222   -1.7233   -2.4304 H   0  0  0  0  0  0  0  0  0  0  0  0
   -0.2341    2.0243   -5.0869 H   0  0  0  0  0  0  0  0  0  0  0  0
    1.1628    1.4414   -6.0447 H   0  0  0  0  0  0  0  0  0  0  0  0
   -0.3201    0.4392   -5.9156 H   0  0  0  0  0  0  0  0  0  0  0  0
  1  2  1  0
  1  6  1  0
  1 10  2  0
  2  3  2  0
  2  7  1  0
  3  4  1  0
  3 15  1  0
  4  5  1  0
  4  8  2  0
  5  6  2  0
  5  9  1  0
  6 16  1  0
  7 11  1  0
  7 12  1  0
  9 13  2  0
  9 14  1  0
 15 17  1  0
 15 20  1  0
 16 28  1  0
 16 31  1  0
 17 18  2  0
 17 24  1  0
 18 19  1  0
 18 23  1  0
 19 20  2  0
 19 22  1  0
 20 21  1  0
 22 25  1  0
 22 26  1  0
 22 27  1  0
 28 29  2  0
 28 35  1  0
 29 30  1  0
 29 34  1  0
 30 31  2  0
 30 33  1  0
 31 32  1  0
 33 36  1  0
 33 37  1  0
 33 38  1  0
M  CHG  6   9   1  11  -1  12  -1  14  -1  19   1  30   1
M  END

