
     RDKit          3D

 54 56  0  0  0  0  0  0  0  0999 V2000
   -0.2078    0.2123    0.3468 C   0  0  0  0  0  0  0  0  0  0  0  0
    0.2537    0.1721    1.7033 C   0  0  0  0  0  0  0  0  0  0  0  0
    1.6074   -0.0138    2.0385 C   0  0  0  0  0  0  0  0  0  0  0  0
    2.6322   -0.2119    1.0538 C   0  0  0  0  0  0  0  0  0  0  0  0
    2.1706   -0.1718   -0.3027 C   0  0  0  0  0  0  0  0  0  0  0  0
    0.8170    0.0140   -0.6379 C   0  0  0  0  0  0  0  0  0  0  0  0
   -0.7116    0.2867    2.7532 N   0  0  0  0  0  0  0  0  0  0  0  0
    2.0615    0.0360    3.4681 C   0  0  0  0  0  0  0  0  0  0  0  0
    3.8810   -0.4105    1.3801 O   0  0  0  0  0  0  0  0  0  0  0  0
    3.1359   -0.2863   -1.3527 N   0  0  0  0  0  0  0  0  0  0  0  0
    0.3628   -0.0363   -2.0675 C   0  0  0  0  0  0  0  0  0  0  0  0
   -1.4566    0.4110    0.0205 O   0  0  0  0  0  0  0  0  0  0  0  0
    3.9572   -1.3485   -1.5820 C   0  0  0  0  0  0  0  0  0  0  0  0
    3.3797    0.5539   -1.8781 H   0  0  0  0  0  0  0  0  0  0  0  0
    4.8956   -1.2701   -2.3999 O   0  0  0  0  0  0  0  0  0  0  0  0
    3.6557   -2.6155   -0.8190 C   0  0  0  0  0  0  0  0  0  0  0  0
    4.0341   -2.4906    0.2068 H   0  0  0  0  0  0  0  0  0  0  0  0
    2.5747   -2.7967   -0.7489 H   0  0  0  0  0  0  0  0  0  0  0  0
    4.1568   -3.4591   -1.3055 H   0  0  0  0  0  0  0  0  0  0  0  0
   -1.5327    1.3492    2.9822 C   0  0  0  0  0  0  0  0  0  0  0  0
   -0.9568   -0.5538    3.2774 H   0  0  0  0  0  0  0  0  0  0  0  0
   -2.4720    1.2706    3.7991 O   0  0  0  0  0  0  0  0  0  0  0  0
   -1.2300    2.6165    2.2203 C   0  0  0  0  0  0  0  0  0  0  0  0
   -1.6077    2.4924    1.1941 H   0  0  0  0  0  0  0  0  0  0  0  0
   -1.7310    3.4599    2.7069 H   0  0  0  0  0  0  0  0  0  0  0  0
   -0.1488    2.7972    2.1512 H   0  0  0  0  0  0  0  0  0  0  0  0
    2.2614   -1.3227    4.0407 N   0  0  0  0  0  0  0  0  0  0  0  0
    3.0337    0.5429    3.5329 H   0  0  0  0  0  0  0  0  0  0  0  0
    1.3366    0.5375    4.1176 H   0  0  0  0  0  0  0  0  0  0  0  0
    1.5548   -1.9044    5.0750 C   0  0  0  0  0  0  0  0  0  0  0  0
    2.0369   -3.1777    5.2215 C   0  0  0  0  0  0  0  0  0  0  0  0
    3.0266   -3.3446    4.2688 N   0  0  0  0  0  0  0  0  0  0  0  0
    3.1483   -2.2091    3.5610 C   0  0  0  0  0  0  0  0  0  0  0  0
    3.8044   -1.9785    2.7174 H   0  0  0  0  0  0  0  0  0  0  0  0
    3.8126   -4.5608    4.0610 C   0  0  0  0  0  0  0  0  0  0  0  0
    1.7672   -3.9661    5.9130 H   0  0  0  0  0  0  0  0  0  0  0  0
    0.7840   -1.3713    5.6176 H   0  0  0  0  0  0  0  0  0  0  0  0
    4.5247   -4.3847    3.2497 H   0  0  0  0  0  0  0  0  0  0  0  0
    4.3561   -4.8055    4.9806 H   0  0  0  0  0  0  0  0  0  0  0  0
    3.1428   -5.3860    3.7935 H   0  0  0  0  0  0  0  0  0  0  0  0
    1.0875   -0.5384   -2.7168 H   0  0  0  0  0  0  0  0  0  0  0  0
   -0.6095   -0.5429   -2.1319 H   0  0  0  0  0  0  0  0  0  0  0  0
    0.1633    1.3222   -2.6407 N   0  0  0  0  0  0  0  0  0  0  0  0
    0.8686    1.9025   -3.6767 C   0  0  0  0  0  0  0  0  0  0  0  0
    0.3869    3.1760   -3.8236 C   0  0  0  0  0  0  0  0  0  0  0  0
   -0.6011    3.3443   -2.8694 N   0  0  0  0  0  0  0  0  0  0  0  0
   -0.7223    2.2096   -2.1604 C   0  0  0  0  0  0  0  0  0  0  0  0
   -1.3775    1.9800   -1.3159 H   0  0  0  0  0  0  0  0  0  0  0  0
   -1.3860    4.5612   -2.6615 C   0  0  0  0  0  0  0  0  0  0  0  0
    0.6560    3.9635   -4.5163 H   0  0  0  0  0  0  0  0  0  0  0  0
    1.6381    1.3684   -4.2200 H   0  0  0  0  0  0  0  0  0  0  0  0
   -2.0979    4.3858   -1.8497 H   0  0  0  0  0  0  0  0  0  0  0  0
   -0.7155    5.3859   -2.3945 H   0  0  0  0  0  0  0  0  0  0  0  0
   -1.9298    4.8061   -3.5808 H   0  0  0  0  0  0  0  0  0  0  0  0
  1  2  2  0
  1  6  1  0
  1 12  1  0
  2  3  1  0
  2  7  1  0
  3  4  2  0
  3  8  1  0
  4  5  1  0
  4  9  1  0
  5  6  2  0
  5 10  1  0
  6 11  1  0
  7 20  1  0
  7 21  1  0
  8 27  1  0
  8 28  1  0
  8 29  1  0
 10 13  1  0
 10 14  1  0
 11 41  1  0
 11 42  1  0
 11 43  1  0
 13 15  2  0
 13 16  1  0
 16 17  1  0
 16 18  1  0
 16 19  1  0
 20 22  2  0
 20 23  1  0
 23 24  1  0
 23 25  1  0
 23 26  1  0
 27 30  1  0
 27 33  1  0
 30 31  2  0
 30 37  1  0
 31 32  1  0
 31 36  1  0
 32 33  2  0
 32 35  1  0
 33 34  1  0
 35 38  1  0
 35 39  1  0
 35 40  1  0
 43 44  1  0
 43 47  1  0
 44 45  2  0
 44 51  1  0
 45 46  1  0
 45 50  1  0
 46 47  2  0
 46 49  1  0
 47 48  1  0
 49 52  1  0
 49 53  1  0
 49 54  1  0
M  CHG  4   9  -1  12  -1  32   1  46   1
M  END

