
     RDKit          3D

 48 50  0  0  0  0  0  0  0  0999 V2000
   -0.1955    0.1653    0.2157 C   0  0  0  0  0  0  0  0  0  0  0  0
   -0.0658    0.1090    1.6458 C   0  0  0  0  0  0  0  0  0  0  0  0
    1.1676   -0.1573    2.2701 C   0  0  0  0  0  0  0  0  0  0  0  0
    2.3818   -0.4595    1.5701 C   0  0  0  0  0  0  0  0  0  0  0  0
    2.2569   -0.3952    0.1408 C   0  0  0  0  0  0  0  0  0  0  0  0
    1.0479   -0.0433   -0.4850 C   0  0  0  0  0  0  0  0  0  0  0  0
   -1.2333    0.2488    2.4447 N   0  0  0  0  0  0  0  0  0  0  0  0
    3.5024   -0.7487    2.1491 O   0  0  0  0  0  0  0  0  0  0  0  0
    3.4594   -0.6459   -0.5678 N   0  0  0  0  0  0  0  0  0  0  0  0
   -1.3119    0.3911   -0.3880 O   0  0  0  0  0  0  0  0  0  0  0  0
    3.7446   -1.6020   -1.5065 C   0  0  0  0  0  0  0  0  0  0  0  0
    4.2926   -0.2678   -0.1096 H   0  0  0  0  0  0  0  0  0  0  0  0
    4.9046   -1.7250   -1.9379 O   0  0  0  0  0  0  0  0  0  0  0  0
    2.6244   -2.4852   -2.0030 C   0  0  0  0  0  0  0  0  0  0  0  0
    1.7794   -2.5390   -1.3063 H   0  0  0  0  0  0  0  0  0  0  0  0
    2.2562   -2.1093   -2.9686 H   0  0  0  0  0  0  0  0  0  0  0  0
    3.0348   -3.4871   -2.1744 H   0  0  0  0  0  0  0  0  0  0  0  0
   -2.0758    1.3228    2.4844 C   0  0  0  0  0  0  0  0  0  0  0  0
   -1.5452   -0.5569    2.9878 H   0  0  0  0  0  0  0  0  0  0  0  0
   -3.1504    1.2624    3.1114 O   0  0  0  0  0  0  0  0  0  0  0  0
   -1.6254    2.5687    1.7641 C   0  0  0  0  0  0  0  0  0  0  0  0
   -0.5540    2.7603    1.9190 H   0  0  0  0  0  0  0  0  0  0  0  0
   -1.7714    2.4147    0.6837 H   0  0  0  0  0  0  0  0  0  0  0  0
   -2.2192    3.4206    2.1110 H   0  0  0  0  0  0  0  0  0  0  0  0
    1.2546   -0.1189    3.6970 N   0  0  0  0  0  0  0  0  0  0  0  0
    0.8021    0.8961    4.5357 C   0  0  0  0  0  0  0  0  0  0  0  0
    1.2010    0.5809    5.8021 C   0  0  0  0  0  0  0  0  0  0  0  0
    1.8975   -0.6143    5.7234 N   0  0  0  0  0  0  0  0  0  0  0  0
    1.9281   -1.0163    4.4438 C   0  0  0  0  0  0  0  0  0  0  0  0
    2.4087   -1.9081    4.0673 H   0  0  0  0  0  0  0  0  0  0  0  0
    2.5091   -1.3186    6.8497 C   0  0  0  0  0  0  0  0  0  0  0  0
    1.0551    1.0981    6.7420 H   0  0  0  0  0  0  0  0  0  0  0  0
    0.2533    1.7476    4.1591 H   0  0  0  0  0  0  0  0  0  0  0  0
    2.9714   -2.2388    6.4808 H   0  0  0  0  0  0  0  0  0  0  0  0
    3.2731   -0.6800    7.3082 H   0  0  0  0  0  0  0  0  0  0  0  0
    1.7369   -1.5635    7.5877 H   0  0  0  0  0  0  0  0  0  0  0  0
    1.0056    0.1362   -1.9039 N   0  0  0  0  0  0  0  0  0  0  0  0
    0.0375   -0.3732   -2.7613 C   0  0  0  0  0  0  0  0  0  0  0  0
    0.3732    0.0199   -4.0264 C   0  0  0  0  0  0  0  0  0  0  0  0
    1.5338    0.7697   -3.9255 N   0  0  0  0  0  0  0  0  0  0  0  0
    1.8974    0.8359   -2.6360 C   0  0  0  0  0  0  0  0  0  0  0  0
    2.7604    1.3601   -2.2478 H   0  0  0  0  0  0  0  0  0  0  0  0
    2.2403    1.4009   -5.0400 C   0  0  0  0  0  0  0  0  0  0  0  0
   -0.1056   -0.1648   -4.9797 H   0  0  0  0  0  0  0  0  0  0  0  0
   -0.7883   -0.9604   -2.3877 H   0  0  0  0  0  0  0  0  0  0  0  0
    3.1285    1.9087   -4.6530 H   0  0  0  0  0  0  0  0  0  0  0  0
    2.5389    0.6326   -5.7622 H   0  0  0  0  0  0  0  0  0  0  0  0
    1.5796    2.1290   -5.5239 H   0  0  0  0  0  0  0  0  0  0  0  0
  1  2  2  0
  1  6  1  0
  1 10  1  0
  2  3  1  0
  2  7  1  0
  3  4  2  0
  3 25  1  0
  4  5  1  0
  4  8  1  0
  5  6  2  0
  5  9  1  0
  6 37  1  0
  7 18  1  0
  7 19  1  0
  9 11  1  0
  9 12  1  0
 11 13  2  0
 11 14  1  0
 14 15  1  0
 14 16  1  0
 14 17  1  0
 18 20  2  0
 18 21  1  0
 21 22  1  0
 21 23  1  0
 21 24  1  0
 25 26  1  0
 25 29  1  0
 26 27  2  0
 26 33  1  0
 27 28  1  0
 27 32  1  0
 28 29  2  0
 28 31  1  0
 29 30  1  0
 31 34  1  0
 31 35  1  0
 31 36  1  0
 37 38  1  0
 37 41  1  0
 38 39  2  0
 38 45  1  0
 39 40  1  0
 39 44  1  0
 40 41  2  0
 40 43  1  0
 41 42  1  0
 43 46  1  0
 43 47  1  0
 43 48  1  0
M  CHG  4   8  -1  10  -1  28   1  40   1
M  END

