
     RDKit          3D

 50 52  0  0  0  0  0  0  0  0999 V2000
   -0.1675    0.0177    0.2262 C   0  0  0  0  0  0  0  0  0  0  0  0
    0.1463   -0.1322    1.6127 C   0  0  0  0  0  0  0  0  0  0  0  0
    1.4779   -0.1449    2.0679 C   0  0  0  0  0  0  0  0  0  0  0  0
    2.5907   -0.0190    1.1761 C   0  0  0  0  0  0  0  0  0  0  0  0
    2.2769    0.1309   -0.2105 C   0  0  0  0  0  0  0  0  0  0  0  0
    0.9452    0.1434   -0.6657 C   0  0  0  0  0  0  0  0  0  0  0  0
   -0.9642   -0.2668    2.5132 N   0  0  0  0  0  0  0  0  0  0  0  0
    1.7941   -0.1948    3.5368 C   0  0  0  0  0  0  0  0  0  0  0  0
    3.8448   -0.0167    1.5969 O   0  0  0  0  0  0  0  0  0  0  0  0
    3.3874    0.2661   -1.1109 N   0  0  0  0  0  0  0  0  0  0  0  0
    0.6296    0.1951   -2.1348 C   0  0  0  0  0  0  0  0  0  0  0  0
   -1.4218    0.0148   -0.1944 O   0  0  0  0  0  0  0  0  0  0  0  0
    4.1954   -0.0034   -0.5324 H   0  0  0  0  0  0  0  0  0  0  0  0
    3.6334    1.6601   -1.5340 C   0  0  0  0  0  0  0  0  0  0  0  0
   -1.7722    0.0014    1.9341 H   0  0  0  0  0  0  0  0  0  0  0  0
   -1.2094   -1.6604    2.9382 C   0  0  0  0  0  0  0  0  0  0  0  0
    4.5705    1.7077   -2.1082 H   0  0  0  0  0  0  0  0  0  0  0  0
    2.8224    2.0155   -2.1850 H   0  0  0  0  0  0  0  0  0  0  0  0
    3.7066    2.3604   -0.6786 H   0  0  0  0  0  0  0  0  0  0  0  0
   -2.1465   -1.7077    3.5123 H   0  0  0  0  0  0  0  0  0  0  0  0
   -1.2820   -2.3619    2.0838 H   0  0  0  0  0  0  0  0  0  0  0  0
   -0.3983   -2.0144    3.5898 H   0  0  0  0  0  0  0  0  0  0  0  0
    1.4737    0.5319   -2.7423 H   0  0  0  0  0  0  0  0  0  0  0  0
    0.2813   -1.1562   -2.6563 N   0  0  0  0  0  0  0  0  0  0  0  0
   -0.2425    0.8346   -2.3275 H   0  0  0  0  0  0  0  0  0  0  0  0
    2.6666   -0.8333    3.7305 H   0  0  0  0  0  0  0  0  0  0  0  0
    2.1419    1.1577    4.0550 N   0  0  0  0  0  0  0  0  0  0  0  0
    0.9504   -0.5309    4.1454 H   0  0  0  0  0  0  0  0  0  0  0  0
    1.0372   -1.9291   -3.5157 C   0  0  0  0  0  0  0  0  0  0  0  0
    0.3842   -3.1245   -3.6579 C   0  0  0  0  0  0  0  0  0  0  0  0
   -0.7556   -3.0544   -2.8752 N   0  0  0  0  0  0  0  0  0  0  0  0
   -0.8015   -1.8523   -2.2746 C   0  0  0  0  0  0  0  0  0  0  0  0
   -1.5054   -1.4602   -1.5306 H   0  0  0  0  0  0  0  0  0  0  0  0
   -1.7449   -4.1196   -2.7148 C   0  0  0  0  0  0  0  0  0  0  0  0
    0.6252   -4.0034   -4.2428 H   0  0  0  0  0  0  0  0  0  0  0  0
    1.9643   -1.5701   -3.9446 H   0  0  0  0  0  0  0  0  0  0  0  0
   -2.5635   -3.7478   -2.0916 H   0  0  0  0  0  0  0  0  0  0  0  0
   -2.1336   -4.4078   -3.6980 H   0  0  0  0  0  0  0  0  0  0  0  0
   -1.2764   -4.9854   -2.2324 H   0  0  0  0  0  0  0  0  0  0  0  0
    1.3726    1.9434    4.8908 C   0  0  0  0  0  0  0  0  0  0  0  0
    2.0273    3.1380    5.0314 C   0  0  0  0  0  0  0  0  0  0  0  0
    3.1811    3.0552    4.2707 N   0  0  0  0  0  0  0  0  0  0  0  0
    3.2344    1.8455    3.6861 C   0  0  0  0  0  0  0  0  0  0  0  0
    3.9467    1.4466    2.9545 H   0  0  0  0  0  0  0  0  0  0  0  0
    4.1842    4.1097    4.1281 C   0  0  0  0  0  0  0  0  0  0  0  0
    1.7788    4.0243    5.6019 H   0  0  0  0  0  0  0  0  0  0  0  0
    0.4354    1.5929    5.3044 H   0  0  0  0  0  0  0  0  0  0  0  0
    4.9661    3.7609    3.4471 H   0  0  0  0  0  0  0  0  0  0  0  0
    3.7118    5.0094    3.7176 H   0  0  0  0  0  0  0  0  0  0  0  0
    4.6227    4.3342    5.1073 H   0  0  0  0  0  0  0  0  0  0  0  0
  1  2  2  0
  1  6  1  0
  1 12  1  0
  2  3  1  0
  2  7  1  0
  3  4  2  0
  3  8  1  0
  4  5  1  0
  4  9  1  0
  5  6  2  0
  5 10  1  0
  6 11  1  0
  7 15  1  0
  7 16  1  0
  8 26  1  0
  8 27  1  0
  8 28  1  0
 10 13  1  0
 10 14  1  0
 11 23  1  0
 11 24  1  0
 11 25  1  0
 14 17  1  0
 14 18  1  0
 14 19  1  0
 16 20  1  0
 16 21  1  0
 16 22  1  0
 24 29  1  0
 24 32  1  0
 27 40  1  0
 27 43  1  0
 29 30  2  0
 29 36  1  0
 30 31  1  0
 30 35  1  0
 31 32  2  0
 31 34  1  0
 32 33  1  0
 34 37  1  0
 34 38  1  0
 34 39  1  0
 40 41  2  0
 40 47  1  0
 41 42  1  0
 41 46  1  0
 42 43  2  0
 42 45  1  0
 43 44  1  0
 45 48  1  0
 45 49  1  0
 45 50  1  0
M  CHG  4   9  -1  12  -1  31   1  42   1
M  END

