
     RDKit          3D

 44 46  0  0  0  0  0  0  0  0999 V2000
   -0.0221    0.5438    0.1067 C   0  0  0  0  0  0  0  0  0  0  0  0
    0.1143    0.3650    1.5227 C   0  0  0  0  0  0  0  0  0  0  0  0
    1.3089   -0.1417    2.0689 C   0  0  0  0  0  0  0  0  0  0  0  0
    2.4460   -0.5454    1.2932 C   0  0  0  0  0  0  0  0  0  0  0  0
    2.3096   -0.3665   -0.1227 C   0  0  0  0  0  0  0  0  0  0  0  0
    1.1150    0.1404   -0.6689 C   0  0  0  0  0  0  0  0  0  0  0  0
   -1.0151    0.7370    2.3021 N   0  0  0  0  0  0  0  0  0  0  0  0
    3.5512   -1.0093    1.8106 O   0  0  0  0  0  0  0  0  0  0  0  0
    3.4390   -0.7386   -0.9024 N   0  0  0  0  0  0  0  0  0  0  0  0
   -1.1275    1.0073   -0.4106 O   0  0  0  0  0  0  0  0  0  0  0  0
    4.1063   -1.1008   -0.2075 H   0  0  0  0  0  0  0  0  0  0  0  0
    4.0842    0.3376   -1.6732 C   0  0  0  0  0  0  0  0  0  0  0  0
   -1.6827    1.0985    1.6072 H   0  0  0  0  0  0  0  0  0  0  0  0
   -1.6596   -0.3385    3.0744 C   0  0  0  0  0  0  0  0  0  0  0  0
    5.0528   -0.0245   -2.0430 H   0  0  0  0  0  0  0  0  0  0  0  0
    3.4801    0.6165   -2.5484 H   0  0  0  0  0  0  0  0  0  0  0  0
    4.2512    1.2538   -1.0755 H   0  0  0  0  0  0  0  0  0  0  0  0
   -2.6291    0.0230    3.4426 H   0  0  0  0  0  0  0  0  0  0  0  0
   -1.8249   -1.2560    2.4782 H   0  0  0  0  0  0  0  0  0  0  0  0
   -1.0560   -0.6151    3.9507 H   0  0  0  0  0  0  0  0  0  0  0  0
    0.9561    0.1807   -2.0941 N   0  0  0  0  0  0  0  0  0  0  0  0
    1.4682   -0.1813    3.4941 N   0  0  0  0  0  0  0  0  0  0  0  0
    0.3969    1.2227   -2.8224 C   0  0  0  0  0  0  0  0  0  0  0  0
    0.4302    0.8589   -4.1404 C   0  0  0  0  0  0  0  0  0  0  0  0
    1.0019   -0.4009   -4.1990 N   0  0  0  0  0  0  0  0  0  0  0  0
    1.3059   -0.7979   -2.9527 C   0  0  0  0  0  0  0  0  0  0  0  0
    1.7961   -1.7227   -2.6781 H   0  0  0  0  0  0  0  0  0  0  0  0
    1.2411   -1.1729   -5.4170 C   0  0  0  0  0  0  0  0  0  0  0  0
    0.0982    1.3774   -5.0311 H   0  0  0  0  0  0  0  0  0  0  0  0
    0.0181    2.1067   -2.3303 H   0  0  0  0  0  0  0  0  0  0  0  0
    1.7044   -2.1262   -5.1458 H   0  0  0  0  0  0  0  0  0  0  0  0
    0.2877   -1.3585   -5.9249 H   0  0  0  0  0  0  0  0  0  0  0  0
    1.9113   -0.6125   -6.0792 H   0  0  0  0  0  0  0  0  0  0  0  0
    2.0287   -1.2222    4.2227 C   0  0  0  0  0  0  0  0  0  0  0  0
    1.9961   -0.8573    5.5405 C   0  0  0  0  0  0  0  0  0  0  0  0
    1.4235    0.4020    5.5985 N   0  0  0  0  0  0  0  0  0  0  0  0
    1.1182    0.7978    4.3521 C   0  0  0  0  0  0  0  0  0  0  0  0
    0.6269    1.7219    4.0771 H   0  0  0  0  0  0  0  0  0  0  0  0
    1.1846    1.1749    6.8160 C   0  0  0  0  0  0  0  0  0  0  0  0
    2.3292   -1.3748    6.4314 H   0  0  0  0  0  0  0  0  0  0  0  0
    2.4081   -2.1062    3.7312 H   0  0  0  0  0  0  0  0  0  0  0  0
    0.7222    2.1285    6.5442 H   0  0  0  0  0  0  0  0  0  0  0  0
    0.5138    0.6154    7.4784 H   0  0  0  0  0  0  0  0  0  0  0  0
    2.1381    1.3600    7.3239 H   0  0  0  0  0  0  0  0  0  0  0  0
  1  2  2  0
  1  6  1  0
  1 10  1  0
  2  3  1  0
  2  7  1  0
  3  4  2  0
  3 22  1  0
  4  5  1  0
  4  8  1  0
  5  6  2  0
  5  9  1  0
  6 21  1  0
  7 13  1  0
  7 14  1  0
  9 11  1  0
  9 12  1  0
 12 15  1  0
 12 16  1  0
 12 17  1  0
 14 18  1  0
 14 19  1  0
 14 20  1  0
 21 23  1  0
 21 26  1  0
 22 34  1  0
 22 37  1  0
 23 24  2  0
 23 30  1  0
 24 25  1  0
 24 29  1  0
 25 26  2  0
 25 28  1  0
 26 27  1  0
 28 31  1  0
 28 32  1  0
 28 33  1  0
 34 35  2  0
 34 41  1  0
 35 36  1  0
 35 40  1  0
 36 37  2  0
 36 39  1  0
 37 38  1  0
 39 42  1  0
 39 43  1  0
 39 44  1  0
M  CHG  4   8  -1  10  -1  25   1  36   1
M  END

