
     RDKit          3D

 30 33  0  0  0  0  0  0  0  0999 V2000
   -0.0036   -0.0001    0.0063 C   0  0  0  0  0  0  0  0  0  0  0  0
    0.0337   -0.0002    1.4395 C   0  0  0  0  0  0  0  0  0  0  0  0
    1.2230    0.0002    2.1369 C   0  0  0  0  0  0  0  0  0  0  0  0
    2.4660    0.0003    1.4373 C   0  0  0  0  0  0  0  0  0  0  0  0
    2.4683    0.0002    0.0552 C   0  0  0  0  0  0  0  0  0  0  0  0
   -0.9176   -0.0004    1.9800 H   0  0  0  0  0  0  0  0  0  0  0  0
    1.2157    0.0003    3.2294 H   0  0  0  0  0  0  0  0  0  0  0  0
    3.4052    0.0005    1.9944 H   0  0  0  0  0  0  0  0  0  0  0  0
    3.4084    0.0002   -0.5018 H   0  0  0  0  0  0  0  0  0  0  0  0
   -1.2079   -0.0001   -0.7116 C   0  0  0  0  0  0  0  0  0  0  0  0
   -1.2114   -0.0001   -2.1218 C   0  0  0  0  0  0  0  0  0  0  0  0
    0.0309   -0.0001   -2.8599 C   0  0  0  0  0  0  0  0  0  0  0  0
    1.3132   -0.0002   -2.1492 C   0  0  0  0  0  0  0  0  0  0  0  0
    1.2645   -0.0001   -0.6999 C   0  0  0  0  0  0  0  0  0  0  0  0
   -2.1651   -0.0001   -0.1867 H   0  0  0  0  0  0  0  0  0  0  0  0
    2.4274   -0.0004   -2.7890 O   0  0  0  0  0  0  0  0  0  0  0  0
   -2.4938   -0.0002   -2.8324 C   0  0  0  0  0  0  0  0  0  0  0  0
   -2.4453   -0.0000   -4.2817 C   0  0  0  0  0  0  0  0  0  0  0  0
   -1.1771   -0.0001   -4.9879 C   0  0  0  0  0  0  0  0  0  0  0  0
    0.0272   -0.0001   -4.2701 C   0  0  0  0  0  0  0  0  0  0  0  0
   -3.6079   -0.0003   -2.1923 O   0  0  0  0  0  0  0  0  0  0  0  0
    0.9843   -0.0001   -4.7952 H   0  0  0  0  0  0  0  0  0  0  0  0
   -1.2144   -0.0001   -6.4212 C   0  0  0  0  0  0  0  0  0  0  0  0
   -2.4036    0.0002   -7.1185 C   0  0  0  0  0  0  0  0  0  0  0  0
   -3.6467    0.0003   -6.4190 C   0  0  0  0  0  0  0  0  0  0  0  0
   -3.6490    0.0001   -5.0369 C   0  0  0  0  0  0  0  0  0  0  0  0
   -0.2631   -0.0002   -6.9616 H   0  0  0  0  0  0  0  0  0  0  0  0
   -2.3963    0.0003   -8.2110 H   0  0  0  0  0  0  0  0  0  0  0  0
   -4.5858    0.0003   -6.9761 H   0  0  0  0  0  0  0  0  0  0  0  0
   -4.5892    0.0001   -4.4800 H   0  0  0  0  0  0  0  0  0  0  0  0
  1  2  2  0
  1 10  1  0
  1 14  1  0
  2  3  1  0
  2  6  1  0
  3  4  2  0
  3  7  1  0
  4  5  1  0
  4  8  1  0
  5  9  1  0
  5 14  2  0
 10 11  2  0
 10 15  1  0
 11 12  1  0
 11 17  1  0
 12 13  1  0
 12 20  2  0
 13 14  1  0
 13 16  2  0
 17 18  1  0
 17 21  2  0
 18 19  2  0
 18 26  1  0
 19 20  1  0
 19 23  1  0
 20 22  1  0
 23 24  2  0
 23 27  1  0
 24 25  1  0
 24 28  1  0
 25 26  2  0
 25 29  1  0
 26 30  1  0
M  END

