
     RDKit          3D

 16 17  0  0  0  0  0  0  0  0999 V2000
    0.0055   -0.0002    0.0164 C   0  0  0  0  0  0  0  0  0  0  0  0
   -0.0516   -0.0004    1.4802 C   0  0  0  0  0  0  0  0  0  0  0  0
    1.2216    0.0000    2.1306 C   0  0  0  0  0  0  0  0  0  0  0  0
    2.4289    0.0003    1.4189 C   0  0  0  0  0  0  0  0  0  0  0  0
    2.4614    0.0002    0.0217 C   0  0  0  0  0  0  0  0  0  0  0  0
   -1.1697   -0.0009    2.1182 O   0  0  0  0  0  0  0  0  0  0  0  0
    1.2267    0.0001    3.2246 H   0  0  0  0  0  0  0  0  0  0  0  0
    3.3701    0.0007    1.9776 H   0  0  0  0  0  0  0  0  0  0  0  0
    3.3994    0.0002   -0.5334 H   0  0  0  0  0  0  0  0  0  0  0  0
   -1.1759    0.0002   -0.7705 C   0  0  0  0  0  0  0  0  0  0  0  0
   -1.1890    0.0009   -2.0949 N   0  0  0  0  0  0  0  0  0  0  0  0
   -0.0130    0.0008   -2.7984 N   0  0  0  0  0  0  0  0  0  0  0  0
    1.1946   -0.0003   -2.1548 C   0  0  0  0  0  0  0  0  0  0  0  0
    1.2406   -0.0001   -0.6820 C   0  0  0  0  0  0  0  0  0  0  0  0
   -2.1511    0.0001   -0.2757 H   0  0  0  0  0  0  0  0  0  0  0  0
    2.2690   -0.0014   -2.8448 O   0  0  0  0  0  0  0  0  0  0  0  0
  1  2  1  0
  1 10  2  0
  1 14  1  0
  2  3  1  0
  2  6  2  0
  3  4  2  0
  3  7  1  0
  4  5  1  0
  4  8  1  0
  5  9  1  0
  5 14  2  0
 10 11  1  0
 10 15  1  0
 11 12  2  0
 12 13  1  0
 13 14  1  0
 13 16  2  0
M  END

