
     RDKit          3D

 32 33  0  0  0  0  0  0  0  0999 V2000
   -0.0329   -0.1061   -0.0273 C   0  0  0  0  0  0  0  0  0  0  0  0
   -0.0875   -0.0063    1.4377 C   0  0  0  0  0  0  0  0  0  0  0  0
    1.1430    0.1431    2.1105 C   0  0  0  0  0  0  0  0  0  0  0  0
    2.3559    0.3291    1.4324 C   0  0  0  0  0  0  0  0  0  0  0  0
    2.4038    0.3805    0.0433 C   0  0  0  0  0  0  0  0  0  0  0  0
    1.2168    0.1050   -0.7221 C   0  0  0  0  0  0  0  0  0  0  0  0
   -1.2179   -0.0407    2.1054 O   0  0  0  0  0  0  0  0  0  0  0  0
    1.1214    0.1485    3.2033 H   0  0  0  0  0  0  0  0  0  0  0  0
    3.2742    0.4388    2.0090 H   0  0  0  0  0  0  0  0  0  0  0  0
    3.5957    0.6526   -0.6759 N   0  0  0  0  0  0  0  0  0  0  0  0
    1.2714    0.0048   -2.1871 C   0  0  0  0  0  0  0  0  0  0  0  0
   -1.2200   -0.3810   -0.7927 C   0  0  0  0  0  0  0  0  0  0  0  0
    0.0409   -0.1432   -2.8599 C   0  0  0  0  0  0  0  0  0  0  0  0
   -1.1722   -0.3286   -2.1818 C   0  0  0  0  0  0  0  0  0  0  0  0
    2.4020    0.0376   -2.8545 O   0  0  0  0  0  0  0  0  0  0  0  0
    0.0624   -0.1484   -3.9527 H   0  0  0  0  0  0  0  0  0  0  0  0
   -2.0906   -0.4372   -2.7584 H   0  0  0  0  0  0  0  0  0  0  0  0
   -2.4119   -0.6533   -0.0736 N   0  0  0  0  0  0  0  0  0  0  0  0
   -3.4325   -1.5093   -0.3222 C   0  0  0  0  0  0  0  0  0  0  0  0
   -2.2779   -0.3548    0.9380 H   0  0  0  0  0  0  0  0  0  0  0  0
    3.4621    0.3529   -1.6871 H   0  0  0  0  0  0  0  0  0  0  0  0
    4.6157    1.5095   -0.4280 C   0  0  0  0  0  0  0  0  0  0  0  0
   -4.3786   -1.6099    0.5004 O   0  0  0  0  0  0  0  0  0  0  0  0
   -3.4357   -2.3615   -1.5750 C   0  0  0  0  0  0  0  0  0  0  0  0
   -2.4223   -2.6370   -1.8958 H   0  0  0  0  0  0  0  0  0  0  0  0
   -4.0269   -3.2620   -1.3681 H   0  0  0  0  0  0  0  0  0  0  0  0
   -3.9158   -1.8259   -2.4072 H   0  0  0  0  0  0  0  0  0  0  0  0
    5.5623    1.6091   -1.2502 O   0  0  0  0  0  0  0  0  0  0  0  0
    4.6177    2.3638    0.8234 C   0  0  0  0  0  0  0  0  0  0  0  0
    3.6040    2.6382    1.1439 H   0  0  0  0  0  0  0  0  0  0  0  0
    5.0989    1.8303    1.6564 H   0  0  0  0  0  0  0  0  0  0  0  0
    5.2074    3.2649    0.6149 H   0  0  0  0  0  0  0  0  0  0  0  0
  1  2  1  0
  1  6  1  0
  1 12  2  0
  2  3  1  0
  2  7  2  0
  3  4  2  0
  3  8  1  0
  4  5  1  0
  4  9  1  0
  5  6  2  0
  5 10  1  0
  6 11  1  0
 10 21  1  0
 10 22  1  0
 11 13  1  0
 11 15  2  0
 12 14  1  0
 12 18  1  0
 13 14  2  0
 13 16  1  0
 14 17  1  0
 18 19  1  0
 18 20  1  0
 19 23  2  0
 19 24  1  0
 22 28  2  0
 22 29  1  0
 24 25  1  0
 24 26  1  0
 24 27  1  0
 29 30  1  0
 29 31  1  0
 29 32  1  0
M  END

