
     RDKit          3D

 46 49  0  0  0  0  0  0  0  0999 V2000
   -0.0796   -0.0346   -0.1298 C   0  0  0  0  0  0  0  0  0  0  0  0
   -0.3446   -0.0224    1.3125 C   0  0  0  0  0  0  0  0  0  0  0  0
    0.7919    0.0782    2.1711 C   0  0  0  0  0  0  0  0  0  0  0  0
    2.1045    0.1433    1.6536 C   0  0  0  0  0  0  0  0  0  0  0  0
    2.3491    0.1237    0.2904 C   0  0  0  0  0  0  0  0  0  0  0  0
    1.2628    0.0347   -0.6211 C   0  0  0  0  0  0  0  0  0  0  0  0
   -1.5506   -0.1127    1.7770 O   0  0  0  0  0  0  0  0  0  0  0  0
    0.5499    0.1226    3.6503 C   0  0  0  0  0  0  0  0  0  0  0  0
    2.9414    0.2177    2.3557 H   0  0  0  0  0  0  0  0  0  0  0  0
    3.3615    0.1826   -0.1099 H   0  0  0  0  0  0  0  0  0  0  0  0
    1.5279    0.0225   -2.0634 C   0  0  0  0  0  0  0  0  0  0  0  0
   -1.1659   -0.1236   -1.0414 C   0  0  0  0  0  0  0  0  0  0  0  0
    0.3915   -0.0788   -2.9220 C   0  0  0  0  0  0  0  0  0  0  0  0
   -0.9211   -0.1439   -2.4045 C   0  0  0  0  0  0  0  0  0  0  0  0
    2.7339    0.1129   -2.5277 O   0  0  0  0  0  0  0  0  0  0  0  0
    0.6337   -0.1229   -4.4012 C   0  0  0  0  0  0  0  0  0  0  0  0
   -1.7580   -0.2188   -3.1067 H   0  0  0  0  0  0  0  0  0  0  0  0
   -2.1783   -0.1826   -0.6413 H   0  0  0  0  0  0  0  0  0  0  0  0
   -0.2327   -0.5127   -4.9485 H   0  0  0  0  0  0  0  0  0  0  0  0
    0.9038    1.2257   -4.9832 N   0  0  0  0  0  0  0  0  0  0  0  0
    1.5155   -0.7354   -4.6368 H   0  0  0  0  0  0  0  0  0  0  0  0
    0.1501    1.8833   -5.9356 C   0  0  0  0  0  0  0  0  0  0  0  0
    0.7355    3.1046   -6.1381 C   0  0  0  0  0  0  0  0  0  0  0  0
    1.8355    3.1654   -5.3012 N   0  0  0  0  0  0  0  0  0  0  0  0
    1.9213    2.0171   -4.6089 C   0  0  0  0  0  0  0  0  0  0  0  0
    2.6465    1.7279   -3.8473 H   0  0  0  0  0  0  0  0  0  0  0  0
    2.7569    4.2957   -5.1858 C   0  0  0  0  0  0  0  0  0  0  0  0
    0.4689    3.9223   -6.7960 H   0  0  0  0  0  0  0  0  0  0  0  0
   -0.7274    1.4350   -6.3847 H   0  0  0  0  0  0  0  0  0  0  0  0
    3.5152    4.0554   -4.4352 H   0  0  0  0  0  0  0  0  0  0  0  0
    3.2382    4.4749   -6.1540 H   0  0  0  0  0  0  0  0  0  0  0  0
    2.2008    5.1881   -4.8763 H   0  0  0  0  0  0  0  0  0  0  0  0
    1.4166    0.5124    4.1973 H   0  0  0  0  0  0  0  0  0  0  0  0
   -0.3316    0.7356    3.8858 H   0  0  0  0  0  0  0  0  0  0  0  0
    0.2794   -1.2255    4.2333 N   0  0  0  0  0  0  0  0  0  0  0  0
    1.0262   -1.8777    5.1948 C   0  0  0  0  0  0  0  0  0  0  0  0
    0.4417   -3.0995    5.3970 C   0  0  0  0  0  0  0  0  0  0  0  0
   -0.6509   -3.1659    4.5508 N   0  0  0  0  0  0  0  0  0  0  0  0
   -0.7331   -2.0206    3.8532 C   0  0  0  0  0  0  0  0  0  0  0  0
   -1.4539   -1.7350    3.0860 H   0  0  0  0  0  0  0  0  0  0  0  0
   -1.5684   -4.2990    4.4314 C   0  0  0  0  0  0  0  0  0  0  0  0
    0.7045   -3.9142    6.0600 H   0  0  0  0  0  0  0  0  0  0  0  0
    1.8986   -1.4256    5.6498 H   0  0  0  0  0  0  0  0  0  0  0  0
   -2.3250   -4.0603    3.6784 H   0  0  0  0  0  0  0  0  0  0  0  0
   -1.0087   -5.1895    4.1231 H   0  0  0  0  0  0  0  0  0  0  0  0
   -2.0525   -4.4803    5.3978 H   0  0  0  0  0  0  0  0  0  0  0  0
  1  2  2  0
  1  6  1  0
  1 12  1  0
  2  3  1  0
  2  7  1  0
  3  4  2  0
  3  8  1  0
  4  5  1  0
  4  9  1  0
  5  6  2  0
  5 10  1  0
  6 11  1  0
  8 33  1  0
  8 34  1  0
  8 35  1  0
 11 13  2  0
 11 15  1  0
 12 14  2  0
 12 18  1  0
 13 14  1  0
 13 16  1  0
 14 17  1  0
 16 19  1  0
 16 20  1  0
 16 21  1  0
 20 22  1  0
 20 25  1  0
 22 23  2  0
 22 29  1  0
 23 24  1  0
 23 28  1  0
 24 25  2  0
 24 27  1  0
 25 26  1  0
 27 30  1  0
 27 31  1  0
 27 32  1  0
 35 36  1  0
 35 39  1  0
 36 37  2  0
 36 43  1  0
 37 38  1  0
 37 42  1  0
 38 39  2  0
 38 41  1  0
 39 40  1  0
 41 44  1  0
 41 45  1  0
 41 46  1  0
M  CHG  4   7  -1  15  -1  24   1  38   1
M  END

