
     RDKit          3D

 46 49  0  0  0  0  0  0  0  0999 V2000
   -0.0212    0.0582    0.0033 C   0  0  0  0  0  0  0  0  0  0  0  0
    0.0234    0.3556    1.4539 C   0  0  0  0  0  0  0  0  0  0  0  0
    1.3136    0.4696    2.0385 C   0  0  0  0  0  0  0  0  0  0  0  0
    2.4828    0.3777    1.2847 C   0  0  0  0  0  0  0  0  0  0  0  0
    2.4693    0.1171   -0.0855 C   0  0  0  0  0  0  0  0  0  0  0  0
    1.2066   -0.0591   -0.7524 C   0  0  0  0  0  0  0  0  0  0  0  0
   -1.0422    0.5197    2.1589 O   0  0  0  0  0  0  0  0  0  0  0  0
    1.3581    0.6748    3.1116 H   0  0  0  0  0  0  0  0  0  0  0  0
    3.4492    0.5199    1.7800 H   0  0  0  0  0  0  0  0  0  0  0  0
    3.7944    0.1241   -0.7890 C   0  0  0  0  0  0  0  0  0  0  0  0
    1.1620   -0.3564   -2.2029 C   0  0  0  0  0  0  0  0  0  0  0  0
   -1.2839   -0.1173   -0.6637 C   0  0  0  0  0  0  0  0  0  0  0  0
   -0.1282   -0.4700   -2.7876 C   0  0  0  0  0  0  0  0  0  0  0  0
   -1.2974   -0.3775   -2.0340 C   0  0  0  0  0  0  0  0  0  0  0  0
    2.2277   -0.5203   -2.9080 O   0  0  0  0  0  0  0  0  0  0  0  0
   -0.1727   -0.6748   -3.8608 H   0  0  0  0  0  0  0  0  0  0  0  0
   -2.2639   -0.5189   -2.5294 H   0  0  0  0  0  0  0  0  0  0  0  0
   -2.6091   -0.1234    0.0397 C   0  0  0  0  0  0  0  0  0  0  0  0
    3.9289   -0.7184   -1.4726 H   0  0  0  0  0  0  0  0  0  0  0  0
    3.9780    1.3390   -1.6406 N   0  0  0  0  0  0  0  0  0  0  0  0
    4.6105    0.1451   -0.0510 H   0  0  0  0  0  0  0  0  0  0  0  0
   -3.4251   -0.1431   -0.6984 H   0  0  0  0  0  0  0  0  0  0  0  0
   -2.7942   -1.3386    0.8905 N   0  0  0  0  0  0  0  0  0  0  0  0
   -2.7428    0.7188    0.7237 H   0  0  0  0  0  0  0  0  0  0  0  0
   -3.7884   -1.5244    1.8283 C   0  0  0  0  0  0  0  0  0  0  0  0
   -3.5758   -2.7470    2.4061 C   0  0  0  0  0  0  0  0  0  0  0  0
   -2.4482   -3.2807    1.8087 N   0  0  0  0  0  0  0  0  0  0  0  0
   -1.9917   -2.4075    0.8935 C   0  0  0  0  0  0  0  0  0  0  0  0
   -1.1101   -2.5308    0.2776 H   0  0  0  0  0  0  0  0  0  0  0  0
   -1.8469   -4.5767    2.1213 C   0  0  0  0  0  0  0  0  0  0  0  0
   -4.1189   -3.2751    3.1802 H   0  0  0  0  0  0  0  0  0  0  0  0
   -4.5515   -0.7778    2.0092 H   0  0  0  0  0  0  0  0  0  0  0  0
   -0.9631   -4.7160    1.4917 H   0  0  0  0  0  0  0  0  0  0  0  0
   -1.5534   -4.5978    3.1771 H   0  0  0  0  0  0  0  0  0  0  0  0
   -2.5715   -5.3741    1.9203 H   0  0  0  0  0  0  0  0  0  0  0  0
    4.9707    1.5246   -2.5801 C   0  0  0  0  0  0  0  0  0  0  0  0
    4.7567    2.7469   -3.1582 C   0  0  0  0  0  0  0  0  0  0  0  0
    3.6300    3.2806   -2.5592 N   0  0  0  0  0  0  0  0  0  0  0  0
    3.1752    2.4078   -1.6427 C   0  0  0  0  0  0  0  0  0  0  0  0
    2.2948    2.5313   -1.0252 H   0  0  0  0  0  0  0  0  0  0  0  0
    3.0278    4.5763   -2.8715 C   0  0  0  0  0  0  0  0  0  0  0  0
    5.2984    3.2747   -3.9334 H   0  0  0  0  0  0  0  0  0  0  0  0
    5.7334    0.7780   -2.7621 H   0  0  0  0  0  0  0  0  0  0  0  0
    2.1442    4.7150   -2.2415 H   0  0  0  0  0  0  0  0  0  0  0  0
    3.7520    5.3741   -2.6709 H   0  0  0  0  0  0  0  0  0  0  0  0
    2.7338    4.5970   -3.9272 H   0  0  0  0  0  0  0  0  0  0  0  0
  1  2  2  0
  1  6  1  0
  1 12  1  0
  2  3  1  0
  2  7  1  0
  3  4  2  0
  3  8  1  0
  4  5  1  0
  4  9  1  0
  5  6  2  0
  5 10  1  0
  6 11  1  0
 10 19  1  0
 10 20  1  0
 10 21  1  0
 11 13  2  0
 11 15  1  0
 12 14  2  0
 12 18  1  0
 13 14  1  0
 13 16  1  0
 14 17  1  0
 18 22  1  0
 18 23  1  0
 18 24  1  0
 20 36  1  0
 20 39  1  0
 23 25  1  0
 23 28  1  0
 25 26  2  0
 25 32  1  0
 26 27  1  0
 26 31  1  0
 27 28  2  0
 27 30  1  0
 28 29  1  0
 30 33  1  0
 30 34  1  0
 30 35  1  0
 36 37  2  0
 36 43  1  0
 37 38  1  0
 37 42  1  0
 38 39  2  0
 38 41  1  0
 39 40  1  0
 41 44  1  0
 41 45  1  0
 41 46  1  0
M  CHG  4   7  -1  15  -1  27   1  38   1
M  END

