
     RDKit          3D

 52 55  0  0  0  0  0  0  0  0999 V2000
   -0.0231    0.0793   -0.0051 C   0  0  0  0  0  0  0  0  0  0  0  0
    0.0040    0.3832    1.4397 C   0  0  0  0  0  0  0  0  0  0  0  0
    1.2806    0.4314    2.0793 C   0  0  0  0  0  0  0  0  0  0  0  0
    2.4496    0.3126    1.3239 C   0  0  0  0  0  0  0  0  0  0  0  0
    2.4576    0.0669   -0.0508 C   0  0  0  0  0  0  0  0  0  0  0  0
    1.2079   -0.0799   -0.7436 C   0  0  0  0  0  0  0  0  0  0  0  0
   -1.0678    0.6178    2.1143 O   0  0  0  0  0  0  0  0  0  0  0  0
    1.3171    0.6909    3.5612 C   0  0  0  0  0  0  0  0  0  0  0  0
    3.4144    0.4293    1.8326 H   0  0  0  0  0  0  0  0  0  0  0  0
    3.7893    0.0936   -0.7396 C   0  0  0  0  0  0  0  0  0  0  0  0
    1.1807   -0.3836   -2.1884 C   0  0  0  0  0  0  0  0  0  0  0  0
   -1.2727   -0.0668   -0.6981 C   0  0  0  0  0  0  0  0  0  0  0  0
   -0.0957   -0.4306   -2.8283 C   0  0  0  0  0  0  0  0  0  0  0  0
   -1.2647   -0.3115   -2.0729 C   0  0  0  0  0  0  0  0  0  0  0  0
    2.2525   -0.6188   -2.8628 O   0  0  0  0  0  0  0  0  0  0  0  0
   -0.1322   -0.6892   -4.3102 C   0  0  0  0  0  0  0  0  0  0  0  0
   -2.2295   -0.4274   -2.5818 H   0  0  0  0  0  0  0  0  0  0  0  0
   -2.6046   -0.0932   -0.0093 C   0  0  0  0  0  0  0  0  0  0  0  0
    3.9558   -0.7563   -1.4072 H   0  0  0  0  0  0  0  0  0  0  0  0
    3.9396    1.2953   -1.6182 N   0  0  0  0  0  0  0  0  0  0  0  0
    4.5981    0.1549    0.0046 H   0  0  0  0  0  0  0  0  0  0  0  0
   -3.4133   -0.1537   -0.7536 H   0  0  0  0  0  0  0  0  0  0  0  0
   -2.7555   -1.2951    0.8685 N   0  0  0  0  0  0  0  0  0  0  0  0
   -2.7706    0.7566    0.6587 H   0  0  0  0  0  0  0  0  0  0  0  0
   -3.7017   -1.4651    1.8574 C   0  0  0  0  0  0  0  0  0  0  0  0
   -3.4622   -2.6791    2.4425 C   0  0  0  0  0  0  0  0  0  0  0  0
   -2.3655   -3.2237    1.7985 N   0  0  0  0  0  0  0  0  0  0  0  0
   -1.9544   -2.3651    0.8482 C   0  0  0  0  0  0  0  0  0  0  0  0
   -1.1029   -2.4970    0.1931 H   0  0  0  0  0  0  0  0  0  0  0  0
   -1.7502   -4.5155    2.1001 C   0  0  0  0  0  0  0  0  0  0  0  0
   -3.9656   -3.1938    3.2517 H   0  0  0  0  0  0  0  0  0  0  0  0
   -4.4520   -0.7132    2.0668 H   0  0  0  0  0  0  0  0  0  0  0  0
   -0.8882   -4.6574    1.4416 H   0  0  0  0  0  0  0  0  0  0  0  0
   -1.4202   -4.5278    3.1452 H   0  0  0  0  0  0  0  0  0  0  0  0
   -2.4783   -5.3171    1.9306 H   0  0  0  0  0  0  0  0  0  0  0  0
    4.8855    1.4652   -2.6072 C   0  0  0  0  0  0  0  0  0  0  0  0
    4.6449    2.6785   -3.1934 C   0  0  0  0  0  0  0  0  0  0  0  0
    3.5477    3.2227   -2.5498 N   0  0  0  0  0  0  0  0  0  0  0  0
    3.1375    2.3645   -1.5987 C   0  0  0  0  0  0  0  0  0  0  0  0
    2.2859    2.4963   -0.9436 H   0  0  0  0  0  0  0  0  0  0  0  0
    2.9315    4.5138   -2.8522 C   0  0  0  0  0  0  0  0  0  0  0  0
    5.1478    3.1930   -4.0030 H   0  0  0  0  0  0  0  0  0  0  0  0
    5.6364    0.7137   -2.8161 H   0  0  0  0  0  0  0  0  0  0  0  0
    2.0670    4.6536   -2.1965 H   0  0  0  0  0  0  0  0  0  0  0  0
    3.6576    5.3165   -2.6797 H   0  0  0  0  0  0  0  0  0  0  0  0
    2.6049    4.5264   -3.8984 H   0  0  0  0  0  0  0  0  0  0  0  0
    2.3461    0.6654    3.9492 H   0  0  0  0  0  0  0  0  0  0  0  0
    0.8767    1.6709    3.8132 H   0  0  0  0  0  0  0  0  0  0  0  0
    0.7159   -0.0539    4.1088 H   0  0  0  0  0  0  0  0  0  0  0  0
   -1.1611   -0.6619   -4.6986 H   0  0  0  0  0  0  0  0  0  0  0  0
    0.4702    0.0550   -4.8572 H   0  0  0  0  0  0  0  0  0  0  0  0
    0.3067   -1.6698   -4.5628 H   0  0  0  0  0  0  0  0  0  0  0  0
  1  2  2  0
  1  6  1  0
  1 12  1  0
  2  3  1  0
  2  7  1  0
  3  4  2  0
  3  8  1  0
  4  5  1  0
  4  9  1  0
  5  6  2  0
  5 10  1  0
  6 11  1  0
  8 47  1  0
  8 48  1  0
  8 49  1  0
 10 19  1  0
 10 20  1  0
 10 21  1  0
 11 13  2  0
 11 15  1  0
 12 14  2  0
 12 18  1  0
 13 14  1  0
 13 16  1  0
 14 17  1  0
 16 50  1  0
 16 51  1  0
 16 52  1  0
 18 22  1  0
 18 23  1  0
 18 24  1  0
 20 36  1  0
 20 39  1  0
 23 25  1  0
 23 28  1  0
 25 26  2  0
 25 32  1  0
 26 27  1  0
 26 31  1  0
 27 28  2  0
 27 30  1  0
 28 29  1  0
 30 33  1  0
 30 34  1  0
 30 35  1  0
 36 37  2  0
 36 43  1  0
 37 38  1  0
 37 42  1  0
 38 39  2  0
 38 41  1  0
 39 40  1  0
 41 44  1  0
 41 45  1  0
 41 46  1  0
M  CHG  4   7  -1  15  -1  27   1  38   1
M  END

