
     RDKit          3D

 58 63  0  0  0  0  0  0  0  0999 V2000
    0.0376    0.0077    0.0186 C   0  0  0  0  0  0  0  0  0  0  0  0
    0.1607   -0.0842    1.4473 C   0  0  0  0  0  0  0  0  0  0  0  0
    1.3810   -0.0191    2.0867 C   0  0  0  0  0  0  0  0  0  0  0  0
    2.5795    0.1520    1.3445 C   0  0  0  0  0  0  0  0  0  0  0  0
    2.4993    0.2713   -0.0287 C   0  0  0  0  0  0  0  0  0  0  0  0
   -0.7266   -0.2423    2.0611 H   0  0  0  0  0  0  0  0  0  0  0  0
    1.4232   -0.1126    3.1742 H   0  0  0  0  0  0  0  0  0  0  0  0
    3.5441    0.1837    1.8546 H   0  0  0  0  0  0  0  0  0  0  0  0
    3.3958    0.4172   -0.6340 H   0  0  0  0  0  0  0  0  0  0  0  0
   -1.1910   -0.0957   -0.6819 C   0  0  0  0  0  0  0  0  0  0  0  0
   -1.1966   -0.1215   -2.1146 C   0  0  0  0  0  0  0  0  0  0  0  0
    0.0114    0.1221   -2.8791 C   0  0  0  0  0  0  0  0  0  0  0  0
    1.2551    0.4205   -2.1534 C   0  0  0  0  0  0  0  0  0  0  0  0
    1.2614    0.2072   -0.7179 C   0  0  0  0  0  0  0  0  0  0  0  0
   -2.4790   -0.0195    0.0898 C   0  0  0  0  0  0  0  0  0  0  0  0
    2.2999    0.8677   -2.7353 O   0  0  0  0  0  0  0  0  0  0  0  0
   -2.4416   -0.4141   -2.8405 C   0  0  0  0  0  0  0  0  0  0  0  0
   -2.4443   -0.2105   -4.2777 C   0  0  0  0  0  0  0  0  0  0  0  0
   -1.2189   -0.0174   -5.0135 C   0  0  0  0  0  0  0  0  0  0  0  0
    0.0082    0.0904   -4.3115 C   0  0  0  0  0  0  0  0  0  0  0  0
   -3.4909   -0.8496   -2.2579 O   0  0  0  0  0  0  0  0  0  0  0  0
    1.2981    0.0122   -5.0799 C   0  0  0  0  0  0  0  0  0  0  0  0
   -1.3390    0.0652   -6.4430 C   0  0  0  0  0  0  0  0  0  0  0  0
   -2.5581   -0.0031   -7.0845 C   0  0  0  0  0  0  0  0  0  0  0  0
   -3.7581   -0.1684   -6.3435 C   0  0  0  0  0  0  0  0  0  0  0  0
   -3.6808   -0.2782   -4.9693 C   0  0  0  0  0  0  0  0  0  0  0  0
   -0.4503    0.2185   -7.0559 H   0  0  0  0  0  0  0  0  0  0  0  0
   -2.5980    0.0831   -8.1727 H   0  0  0  0  0  0  0  0  0  0  0  0
   -4.7217   -0.2034   -6.8552 H   0  0  0  0  0  0  0  0  0  0  0  0
   -4.5788   -0.4194   -4.3651 H   0  0  0  0  0  0  0  0  0  0  0  0
   -3.2795    1.1815   -0.2990 N   0  0  0  0  0  0  0  0  0  0  0  0
   -3.1479   -0.8659   -0.0871 H   0  0  0  0  0  0  0  0  0  0  0  0
   -2.2994    0.0838    1.1649 H   0  0  0  0  0  0  0  0  0  0  0  0
   -4.6429    1.3279   -0.1509 C   0  0  0  0  0  0  0  0  0  0  0  0
   -4.9744    2.5602   -0.6452 C   0  0  0  0  0  0  0  0  0  0  0  0
   -3.8001    3.1408   -1.0925 N   0  0  0  0  0  0  0  0  0  0  0  0
   -2.7861    2.2841   -0.8752 C   0  0  0  0  0  0  0  0  0  0  0  0
   -1.7483    2.4475   -1.1353 H   0  0  0  0  0  0  0  0  0  0  0  0
   -3.6815    4.4519   -1.7297 C   0  0  0  0  0  0  0  0  0  0  0  0
   -5.9294    3.0644   -0.7257 H   0  0  0  0  0  0  0  0  0  0  0  0
   -5.2573    0.5469    0.2782 H   0  0  0  0  0  0  0  0  0  0  0  0
   -2.6219    4.6688   -1.8952 H   0  0  0  0  0  0  0  0  0  0  0  0
   -4.2109    4.4440   -2.6896 H   0  0  0  0  0  0  0  0  0  0  0  0
   -4.1144    5.2155   -1.0738 H   0  0  0  0  0  0  0  0  0  0  0  0
    1.1209   -0.1034   -6.1542 H   0  0  0  0  0  0  0  0  0  0  0  0
    1.9625    0.8639   -4.9113 H   0  0  0  0  0  0  0  0  0  0  0  0
    2.1044   -1.1802   -4.6770 N   0  0  0  0  0  0  0  0  0  0  0  0
    3.4692   -1.3192   -4.8184 C   0  0  0  0  0  0  0  0  0  0  0  0
    3.8067   -2.5443   -4.3105 C   0  0  0  0  0  0  0  0  0  0  0  0
    2.6345   -3.1281   -3.8620 N   0  0  0  0  0  0  0  0  0  0  0  0
    1.6158   -2.2801   -4.0916 C   0  0  0  0  0  0  0  0  0  0  0  0
    0.5780   -2.4478   -3.8340 H   0  0  0  0  0  0  0  0  0  0  0  0
    2.5224   -4.4311   -3.2073 C   0  0  0  0  0  0  0  0  0  0  0  0
    4.7647   -3.0414   -4.2211 H   0  0  0  0  0  0  0  0  0  0  0  0
    4.0802   -0.5387   -5.2533 H   0  0  0  0  0  0  0  0  0  0  0  0
    1.4628   -4.6665   -3.0694 H   0  0  0  0  0  0  0  0  0  0  0  0
    2.9891   -5.1958   -3.8381 H   0  0  0  0  0  0  0  0  0  0  0  0
    3.0232   -4.3984   -2.2325 H   0  0  0  0  0  0  0  0  0  0  0  0
  1  2  2  0
  1 10  1  0
  1 14  1  0
  2  3  1  0
  2  6  1  0
  3  4  2  0
  3  7  1  0
  4  5  1  0
  4  8  1  0
  5  9  1  0
  5 14  2  0
 10 11  2  0
 10 15  1  0
 11 12  1  0
 11 17  1  0
 12 13  2  0
 12 20  1  0
 13 14  1  0
 13 16  1  0
 15 31  1  0
 15 32  1  0
 15 33  1  0
 17 18  2  0
 17 21  1  0
 18 19  1  0
 18 26  1  0
 19 20  2  0
 19 23  1  0
 20 22  1  0
 22 45  1  0
 22 46  1  0
 22 47  1  0
 23 24  2  0
 23 27  1  0
 24 25  1  0
 24 28  1  0
 25 26  2  0
 25 29  1  0
 26 30  1  0
 31 34  1  0
 31 37  1  0
 34 35  2  0
 34 41  1  0
 35 36  1  0
 35 40  1  0
 36 37  2  0
 36 39  1  0
 37 38  1  0
 39 42  1  0
 39 43  1  0
 39 44  1  0
 47 48  1  0
 47 51  1  0
 48 49  2  0
 48 55  1  0
 49 50  1  0
 49 54  1  0
 50 51  2  0
 50 53  1  0
 51 52  1  0
 53 56  1  0
 53 57  1  0
 53 58  1  0
M  CHG  4  16  -1  21  -1  36   1  50   1
M  END

