
     RDKit          3D

 52 57  0  0  0  0  0  0  0  0999 V2000
   -0.0142    0.0286    0.0439 C   0  0  0  0  0  0  0  0  0  0  0  0
    0.0093    0.0542    1.4763 C   0  0  0  0  0  0  0  0  0  0  0  0
    1.1974    0.1177    2.1731 C   0  0  0  0  0  0  0  0  0  0  0  0
    2.4379    0.1674    1.4833 C   0  0  0  0  0  0  0  0  0  0  0  0
    2.4429    0.1702    0.1018 C   0  0  0  0  0  0  0  0  0  0  0  0
   -0.9303    0.0221    2.0293 H   0  0  0  0  0  0  0  0  0  0  0  0
    1.1820    0.1323    3.2648 H   0  0  0  0  0  0  0  0  0  0  0  0
    3.3740    0.2107    2.0425 H   0  0  0  0  0  0  0  0  0  0  0  0
    3.3798    0.2259   -0.4551 H   0  0  0  0  0  0  0  0  0  0  0  0
   -1.2004   -0.0412   -0.7105 C   0  0  0  0  0  0  0  0  0  0  0  0
   -1.2169   -0.0494   -2.1328 C   0  0  0  0  0  0  0  0  0  0  0  0
    0.0411    0.0464   -2.8456 C   0  0  0  0  0  0  0  0  0  0  0  0
    1.3097    0.1664   -2.1021 C   0  0  0  0  0  0  0  0  0  0  0  0
    1.2423    0.1087   -0.6511 C   0  0  0  0  0  0  0  0  0  0  0  0
    2.4310    0.3214   -2.6871 O   0  0  0  0  0  0  0  0  0  0  0  0
   -2.4854   -0.1706   -2.8763 C   0  0  0  0  0  0  0  0  0  0  0  0
   -2.4181   -0.1119   -4.3273 C   0  0  0  0  0  0  0  0  0  0  0  0
   -1.1617   -0.0304   -5.0223 C   0  0  0  0  0  0  0  0  0  0  0  0
    0.0245    0.0390   -4.2679 C   0  0  0  0  0  0  0  0  0  0  0  0
   -3.6064   -0.3275   -2.2913 O   0  0  0  0  0  0  0  0  0  0  0  0
   -1.1851   -0.0544   -6.4547 C   0  0  0  0  0  0  0  0  0  0  0  0
   -2.3733   -0.1178   -7.1516 C   0  0  0  0  0  0  0  0  0  0  0  0
   -3.6137   -0.1693   -6.4618 C   0  0  0  0  0  0  0  0  0  0  0  0
   -3.6187   -0.1736   -5.0804 C   0  0  0  0  0  0  0  0  0  0  0  0
   -0.2455   -0.0210   -7.0075 H   0  0  0  0  0  0  0  0  0  0  0  0
   -2.3578   -0.1311   -8.2433 H   0  0  0  0  0  0  0  0  0  0  0  0
   -4.5497   -0.2128   -7.0211 H   0  0  0  0  0  0  0  0  0  0  0  0
   -4.5557   -0.2305   -4.5236 H   0  0  0  0  0  0  0  0  0  0  0  0
   -2.4310   -0.0592    0.0381 N   0  0  0  0  0  0  0  0  0  0  0  0
   -2.9778   -1.1507    0.6913 C   0  0  0  0  0  0  0  0  0  0  0  0
   -4.1874   -0.7590    1.1922 C   0  0  0  0  0  0  0  0  0  0  0  0
   -4.3607    0.5678    0.8315 N   0  0  0  0  0  0  0  0  0  0  0  0
   -3.2871    0.9674    0.1356 C   0  0  0  0  0  0  0  0  0  0  0  0
   -3.1405    1.9478   -0.2985 H   0  0  0  0  0  0  0  0  0  0  0  0
   -5.5246    1.3918    1.1537 C   0  0  0  0  0  0  0  0  0  0  0  0
   -4.9298   -1.2949    1.7703 H   0  0  0  0  0  0  0  0  0  0  0  0
   -2.4639   -2.1024    0.7272 H   0  0  0  0  0  0  0  0  0  0  0  0
   -5.3823    2.3877    0.7239 H   0  0  0  0  0  0  0  0  0  0  0  0
   -6.4245    0.9328    0.7283 H   0  0  0  0  0  0  0  0  0  0  0  0
   -5.6273    1.4715    2.2420 H   0  0  0  0  0  0  0  0  0  0  0  0
    1.2550    0.0591   -5.0166 N   0  0  0  0  0  0  0  0  0  0  0  0
    1.8021    1.1529   -5.6658 C   0  0  0  0  0  0  0  0  0  0  0  0
    3.0118    0.7629   -6.1675 C   0  0  0  0  0  0  0  0  0  0  0  0
    3.1850   -0.5652   -5.8113 N   0  0  0  0  0  0  0  0  0  0  0  0
    2.1110   -0.9671   -5.1173 C   0  0  0  0  0  0  0  0  0  0  0  0
    1.9641   -1.9492   -4.6871 H   0  0  0  0  0  0  0  0  0  0  0  0
    4.3488   -1.3882   -6.1362 C   0  0  0  0  0  0  0  0  0  0  0  0
    3.7546    1.3008   -6.7433 H   0  0  0  0  0  0  0  0  0  0  0  0
    1.2883    2.1048   -5.6984 H   0  0  0  0  0  0  0  0  0  0  0  0
    4.2087   -2.3839   -5.7053 H   0  0  0  0  0  0  0  0  0  0  0  0
    4.4488   -1.4685   -7.2247 H   0  0  0  0  0  0  0  0  0  0  0  0
    5.2492   -0.9279   -5.7135 H   0  0  0  0  0  0  0  0  0  0  0  0
  1  2  2  0
  1 10  1  0
  1 14  1  0
  2  3  1  0
  2  6  1  0
  3  4  2  0
  3  7  1  0
  4  5  1  0
  4  8  1  0
  5  9  1  0
  5 14  2  0
 10 11  2  0
 10 29  1  0
 11 12  1  0
 11 16  1  0
 12 13  2  0
 12 19  1  0
 13 14  1  0
 13 15  1  0
 16 17  2  0
 16 20  1  0
 17 18  1  0
 17 24  1  0
 18 19  2  0
 18 21  1  0
 19 41  1  0
 21 22  2  0
 21 25  1  0
 22 23  1  0
 22 26  1  0
 23 24  2  0
 23 27  1  0
 24 28  1  0
 29 30  1  0
 29 33  1  0
 30 31  2  0
 30 37  1  0
 31 32  1  0
 31 36  1  0
 32 33  2  0
 32 35  1  0
 33 34  1  0
 35 38  1  0
 35 39  1  0
 35 40  1  0
 41 42  1  0
 41 45  1  0
 42 43  2  0
 42 49  1  0
 43 44  1  0
 43 48  1  0
 44 45  2  0
 44 47  1  0
 45 46  1  0
 47 50  1  0
 47 51  1  0
 47 52  1  0
M  CHG  4  15  -1  20  -1  32   1  44   1
M  END

