
     RDKit          3D

 56 59  0  0  0  0  0  0  0  0999 V2000
   -0.0366   -0.0584   -0.0198 C   0  0  0  0  0  0  0  0  0  0  0  0
   -0.1205   -0.0989    1.4414 C   0  0  0  0  0  0  0  0  0  0  0  0
    1.0855    0.0737    2.1595 C   0  0  0  0  0  0  0  0  0  0  0  0
    2.3324    0.2025    1.5114 C   0  0  0  0  0  0  0  0  0  0  0  0
    2.4500    0.1494    0.1248 C   0  0  0  0  0  0  0  0  0  0  0  0
   -1.2568   -0.2727    2.0934 O   0  0  0  0  0  0  0  0  0  0  0  0
    1.0223    0.0670    3.6577 C   0  0  0  0  0  0  0  0  0  0  0  0
    3.2303    0.2966    2.1259 H   0  0  0  0  0  0  0  0  0  0  0  0
    3.7067    0.1305   -0.4935 N   0  0  0  0  0  0  0  0  0  0  0  0
   -1.2373   -0.1505   -0.8237 C   0  0  0  0  0  0  0  0  0  0  0  0
   -1.1197   -0.2032   -2.2102 C   0  0  0  0  0  0  0  0  0  0  0  0
    0.1272   -0.0742   -2.8583 C   0  0  0  0  0  0  0  0  0  0  0  0
    1.3332    0.0980   -2.1402 C   0  0  0  0  0  0  0  0  0  0  0  0
    1.2493    0.0573   -0.6790 C   0  0  0  0  0  0  0  0  0  0  0  0
   -2.4940   -0.1318   -0.2054 N   0  0  0  0  0  0  0  0  0  0  0  0
   -2.0176   -0.2970   -2.8248 H   0  0  0  0  0  0  0  0  0  0  0  0
    0.1902   -0.0666   -4.3565 C   0  0  0  0  0  0  0  0  0  0  0  0
    2.4695    0.2720   -2.7923 O   0  0  0  0  0  0  0  0  0  0  0  0
   -3.6481   -0.6819   -0.8853 C   0  0  0  0  0  0  0  0  0  0  0  0
   -2.3823   -0.3243    0.8067 H   0  0  0  0  0  0  0  0  0  0  0  0
    3.5950    0.3236   -1.5055 H   0  0  0  0  0  0  0  0  0  0  0  0
    4.8610    0.6801    0.1865 C   0  0  0  0  0  0  0  0  0  0  0  0
    5.6914    0.7529   -0.5282 H   0  0  0  0  0  0  0  0  0  0  0  0
    4.6779    1.6890    0.6135 H   0  0  0  0  0  0  0  0  0  0  0  0
    5.1960    0.0349    1.0177 H   0  0  0  0  0  0  0  0  0  0  0  0
   -4.4785   -0.7550   -0.1705 H   0  0  0  0  0  0  0  0  0  0  0  0
   -3.9835   -0.0370   -1.7164 H   0  0  0  0  0  0  0  0  0  0  0  0
   -3.4646   -1.6908   -1.3121 H   0  0  0  0  0  0  0  0  0  0  0  0
    0.8911    0.7004   -4.7157 H   0  0  0  0  0  0  0  0  0  0  0  0
    0.6724   -1.3622   -4.9210 N   0  0  0  0  0  0  0  0  0  0  0  0
   -0.7946    0.1041   -4.8078 H   0  0  0  0  0  0  0  0  0  0  0  0
    0.0294   -2.1542   -5.8518 C   0  0  0  0  0  0  0  0  0  0  0  0
    0.8191   -3.2541   -6.0569 C   0  0  0  0  0  0  0  0  0  0  0  0
    1.9294   -3.1069   -5.2438 N   0  0  0  0  0  0  0  0  0  0  0  0
    1.8218   -1.9543   -4.5613 C   0  0  0  0  0  0  0  0  0  0  0  0
    2.5151   -1.5133   -3.8424 H   0  0  0  0  0  0  0  0  0  0  0  0
    3.0417   -4.0515   -5.1421 C   0  0  0  0  0  0  0  0  0  0  0  0
    0.6876   -4.1170   -6.6978 H   0  0  0  0  0  0  0  0  0  0  0  0
   -0.9251   -1.8766   -6.2817 H   0  0  0  0  0  0  0  0  0  0  0  0
    3.7628   -3.6675   -4.4146 H   0  0  0  0  0  0  0  0  0  0  0  0
    2.6636   -5.0245   -4.8083 H   0  0  0  0  0  0  0  0  0  0  0  0
    3.5237   -4.1552   -6.1209 H   0  0  0  0  0  0  0  0  0  0  0  0
    2.0071   -0.1031    4.1092 H   0  0  0  0  0  0  0  0  0  0  0  0
    0.5400    1.3631    4.2210 N   0  0  0  0  0  0  0  0  0  0  0  0
    0.3215   -0.6997    4.0173 H   0  0  0  0  0  0  0  0  0  0  0  0
    1.1838    2.1572    5.1494 C   0  0  0  0  0  0  0  0  0  0  0  0
    0.3939    3.2571    5.3534 C   0  0  0  0  0  0  0  0  0  0  0  0
   -0.7175    3.1078    4.5422 N   0  0  0  0  0  0  0  0  0  0  0  0
   -0.6103    1.9540    3.8618 C   0  0  0  0  0  0  0  0  0  0  0  0
   -1.3041    1.5112    3.1444 H   0  0  0  0  0  0  0  0  0  0  0  0
   -1.8306    4.0514    4.4405 C   0  0  0  0  0  0  0  0  0  0  0  0
    0.5258    4.1213    5.9925 H   0  0  0  0  0  0  0  0  0  0  0  0
    2.1391    1.8810    5.5784 H   0  0  0  0  0  0  0  0  0  0  0  0
   -2.5503    3.6678    3.7115 H   0  0  0  0  0  0  0  0  0  0  0  0
   -2.3140    4.1533    5.4189 H   0  0  0  0  0  0  0  0  0  0  0  0
   -1.4529    5.0253    4.1086 H   0  0  0  0  0  0  0  0  0  0  0  0
  1  2  2  0
  1 10  1  0
  1 14  1  0
  2  3  1  0
  2  6  1  0
  3  4  2  0
  3  7  1  0
  4  5  1  0
  4  8  1  0
  5  9  1  0
  5 14  2  0
  7 43  1  0
  7 44  1  0
  7 45  1  0
  9 21  1  0
  9 22  1  0
 10 11  2  0
 10 15  1  0
 11 12  1  0
 11 16  1  0
 12 13  2  0
 12 17  1  0
 13 14  1  0
 13 18  1  0
 15 19  1  0
 15 20  1  0
 17 29  1  0
 17 30  1  0
 17 31  1  0
 19 26  1  0
 19 27  1  0
 19 28  1  0
 22 23  1  0
 22 24  1  0
 22 25  1  0
 30 32  1  0
 30 35  1  0
 32 33  2  0
 32 39  1  0
 33 34  1  0
 33 38  1  0
 34 35  2  0
 34 37  1  0
 35 36  1  0
 37 40  1  0
 37 41  1  0
 37 42  1  0
 44 46  1  0
 44 49  1  0
 46 47  2  0
 46 53  1  0
 47 48  1  0
 47 52  1  0
 48 49  2  0
 48 51  1  0
 49 50  1  0
 51 54  1  0
 51 55  1  0
 51 56  1  0
M  CHG  4   6  -1  18  -1  34   1  48   1
M  END

