
     RDKit          3D

 70 75  0  0  0  0  0  0  0  0999 V2000
   -0.0464   -0.1038   -0.0576 C   0  0  0  0  0  0  0  0  0  0  0  0
   -0.2151   -0.0646    1.3957 C   0  0  0  0  0  0  0  0  0  0  0  0
    0.9616    0.0301    2.1794 C   0  0  0  0  0  0  0  0  0  0  0  0
    2.2258    0.2187    1.5947 C   0  0  0  0  0  0  0  0  0  0  0  0
    2.3906    0.3161    0.2197 C   0  0  0  0  0  0  0  0  0  0  0  0
   -1.3951   -0.0893    1.9746 O   0  0  0  0  0  0  0  0  0  0  0  0
    0.8187    0.0085    3.6713 C   0  0  0  0  0  0  0  0  0  0  0  0
    3.1018    0.2928    2.2424 H   0  0  0  0  0  0  0  0  0  0  0  0
    3.6563    0.5599   -0.3578 N   0  0  0  0  0  0  0  0  0  0  0  0
   -1.1794   -0.3134   -0.9226 C   0  0  0  0  0  0  0  0  0  0  0  0
   -1.0146   -0.2165   -2.2976 C   0  0  0  0  0  0  0  0  0  0  0  0
    0.2496   -0.0278   -2.8823 C   0  0  0  0  0  0  0  0  0  0  0  0
    1.4263    0.0673   -2.0987 C   0  0  0  0  0  0  0  0  0  0  0  0
    1.2576    0.1068   -0.6453 C   0  0  0  0  0  0  0  0  0  0  0  0
   -2.4453   -0.5571   -0.3455 N   0  0  0  0  0  0  0  0  0  0  0  0
   -1.8906   -0.2912   -2.9453 H   0  0  0  0  0  0  0  0  0  0  0  0
    0.3931   -0.0097   -4.3741 C   0  0  0  0  0  0  0  0  0  0  0  0
    2.6061    0.0920   -2.6778 O   0  0  0  0  0  0  0  0  0  0  0  0
   -3.3507   -1.5382   -0.7173 C   0  0  0  0  0  0  0  0  0  0  0  0
   -2.3864   -0.3532    0.6824 H   0  0  0  0  0  0  0  0  0  0  0  0
    3.5969    0.3563   -1.3858 H   0  0  0  0  0  0  0  0  0  0  0  0
    4.5622    1.5406    0.0137 C   0  0  0  0  0  0  0  0  0  0  0  0
    1.1961    0.6698   -4.6878 H   0  0  0  0  0  0  0  0  0  0  0  0
    0.7465   -1.3546   -4.9148 N   0  0  0  0  0  0  0  0  0  0  0  0
   -0.5401    0.2762   -4.8738 H   0  0  0  0  0  0  0  0  0  0  0  0
   -0.0797   -2.1935   -5.6373 C   0  0  0  0  0  0  0  0  0  0  0  0
    0.6121   -3.3568   -5.8451 C   0  0  0  0  0  0  0  0  0  0  0  0
    1.8458   -3.2037   -5.2385 N   0  0  0  0  0  0  0  0  0  0  0  0
    1.9087   -1.9836   -4.6794 C   0  0  0  0  0  0  0  0  0  0  0  0
    2.7102   -1.5549   -4.0815 H   0  0  0  0  0  0  0  0  0  0  0  0
    2.9131   -4.2040   -5.2133 C   0  0  0  0  0  0  0  0  0  0  0  0
    0.3386   -4.2648   -6.3678 H   0  0  0  0  0  0  0  0  0  0  0  0
   -1.0745   -1.8955   -5.9441 H   0  0  0  0  0  0  0  0  0  0  0  0
    3.7519   -3.8082   -4.6334 H   0  0  0  0  0  0  0  0  0  0  0  0
    2.5394   -5.1211   -4.7442 H   0  0  0  0  0  0  0  0  0  0  0  0
    3.2392   -4.4159   -6.2379 H   0  0  0  0  0  0  0  0  0  0  0  0
    1.7522   -0.2788    4.1696 H   0  0  0  0  0  0  0  0  0  0  0  0
    0.4656    1.3515    4.2169 N   0  0  0  0  0  0  0  0  0  0  0  0
    0.0161   -0.6723    3.9833 H   0  0  0  0  0  0  0  0  0  0  0  0
    1.2847    2.1796    4.9595 C   0  0  0  0  0  0  0  0  0  0  0  0
    0.5949    3.3439    5.1687 C   0  0  0  0  0  0  0  0  0  0  0  0
   -0.6305    3.2020    4.5430 N   0  0  0  0  0  0  0  0  0  0  0  0
   -0.6906    1.9878    3.9712 C   0  0  0  0  0  0  0  0  0  0  0  0
   -1.4863    1.5665    3.3601 H   0  0  0  0  0  0  0  0  0  0  0  0
   -1.6934    4.2070    4.5129 C   0  0  0  0  0  0  0  0  0  0  0  0
    0.8649    4.2457    5.7038 H   0  0  0  0  0  0  0  0  0  0  0  0
    2.2740    1.8745    5.2772 H   0  0  0  0  0  0  0  0  0  0  0  0
   -2.5230    3.8229    3.9124 H   0  0  0  0  0  0  0  0  0  0  0  0
   -2.0371    4.4058    5.5344 H   0  0  0  0  0  0  0  0  0  0  0  0
   -1.3076    5.1290    4.0636 H   0  0  0  0  0  0  0  0  0  0  0  0
   -4.5481   -1.6485    0.0380 C   0  0  0  0  0  0  0  0  0  0  0  0
   -5.5053   -2.6142   -0.2613 C   0  0  0  0  0  0  0  0  0  0  0  0
   -5.3167   -3.5090   -1.3261 C   0  0  0  0  0  0  0  0  0  0  0  0
   -4.1353   -3.4167   -2.0716 C   0  0  0  0  0  0  0  0  0  0  0  0
   -3.1656   -2.4535   -1.7826 C   0  0  0  0  0  0  0  0  0  0  0  0
   -4.7110   -0.9555    0.8667 H   0  0  0  0  0  0  0  0  0  0  0  0
   -6.4136   -2.6678    0.3428 H   0  0  0  0  0  0  0  0  0  0  0  0
   -6.0722   -4.2578   -1.5665 H   0  0  0  0  0  0  0  0  0  0  0  0
   -3.9577   -4.1114   -2.8958 H   0  0  0  0  0  0  0  0  0  0  0  0
   -2.2482   -2.4219   -2.3682 H   0  0  0  0  0  0  0  0  0  0  0  0
    5.7580    1.6523   -0.7440 C   0  0  0  0  0  0  0  0  0  0  0  0
    6.7156    2.6177   -0.4453 C   0  0  0  0  0  0  0  0  0  0  0  0
    6.5292    3.5109    0.6212 C   0  0  0  0  0  0  0  0  0  0  0  0
    5.3494    3.4173    1.3692 C   0  0  0  0  0  0  0  0  0  0  0  0
    4.3792    2.4542    1.0808 C   0  0  0  0  0  0  0  0  0  0  0  0
    5.9191    0.9608   -1.5743 H   0  0  0  0  0  0  0  0  0  0  0  0
    7.6226    2.6724   -1.0513 H   0  0  0  0  0  0  0  0  0  0  0  0
    7.2850    4.2595    0.8612 H   0  0  0  0  0  0  0  0  0  0  0  0
    5.1733    4.1106    2.1948 H   0  0  0  0  0  0  0  0  0  0  0  0
    3.4632    2.4215    1.6685 H   0  0  0  0  0  0  0  0  0  0  0  0
  1  2  2  0
  1 10  1  0
  1 14  1  0
  2  3  1  0
  2  6  1  0
  3  4  2  0
  3  7  1  0
  4  5  1  0
  4  8  1  0
  5  9  1  0
  5 14  2  0
  7 37  1  0
  7 38  1  0
  7 39  1  0
  9 21  1  0
  9 22  1  0
 10 11  2  0
 10 15  1  0
 11 12  1  0
 11 16  1  0
 12 13  2  0
 12 17  1  0
 13 14  1  0
 13 18  1  0
 15 19  1  0
 15 20  1  0
 17 23  1  0
 17 24  1  0
 17 25  1  0
 19 51  2  0
 19 55  1  0
 22 61  2  0
 22 65  1  0
 24 26  1  0
 24 29  1  0
 26 27  2  0
 26 33  1  0
 27 28  1  0
 27 32  1  0
 28 29  2  0
 28 31  1  0
 29 30  1  0
 31 34  1  0
 31 35  1  0
 31 36  1  0
 38 40  1  0
 38 43  1  0
 40 41  2  0
 40 47  1  0
 41 42  1  0
 41 46  1  0
 42 43  2  0
 42 45  1  0
 43 44  1  0
 45 48  1  0
 45 49  1  0
 45 50  1  0
 51 52  1  0
 51 56  1  0
 52 53  2  0
 52 57  1  0
 53 54  1  0
 53 58  1  0
 54 55  2  0
 54 59  1  0
 55 60  1  0
 61 62  1  0
 61 66  1  0
 62 63  2  0
 62 67  1  0
 63 64  1  0
 63 68  1  0
 64 65  2  0
 64 69  1  0
 65 70  1  0
M  CHG  4   6  -1  18  -1  28   1  42   1
M  END

