
     RDKit          3D

 46 50  0  0  0  0  0  0  0  0999 V2000
   -0.0235    0.2070   -0.0120 C   0  0  0  0  0  0  0  0  0  0  0  0
    0.0398    0.3172    1.3898 C   0  0  0  0  0  0  0  0  0  0  0  0
    1.2253    0.1224    2.1038 C   0  0  0  0  0  0  0  0  0  0  0  0
    2.4342   -0.2048    1.3866 C   0  0  0  0  0  0  0  0  0  0  0  0
    2.3709   -0.3149   -0.0152 C   0  0  0  0  0  0  0  0  0  0  0  0
    1.1854   -0.1203   -0.7292 C   0  0  0  0  0  0  0  0  0  0  0  0
   -0.8639    0.5643    1.9517 H   0  0  0  0  0  0  0  0  0  0  0  0
    1.2156    0.2579    3.5746 C   0  0  0  0  0  0  0  0  0  0  0  0
    3.6497   -0.4006    2.1119 C   0  0  0  0  0  0  0  0  0  0  0  0
    3.2746   -0.5622   -0.5771 H   0  0  0  0  0  0  0  0  0  0  0  0
    1.1950   -0.2561   -2.1999 C   0  0  0  0  0  0  0  0  0  0  0  0
   -1.2392    0.4023   -0.7372 C   0  0  0  0  0  0  0  0  0  0  0  0
   -0.0620   -0.0104   -2.8314 C   0  0  0  0  0  0  0  0  0  0  0  0
   -1.2430    0.2942   -2.1096 C   0  0  0  0  0  0  0  0  0  0  0  0
    2.2618   -0.5631   -2.8348 O   0  0  0  0  0  0  0  0  0  0  0  0
   -2.1803    0.4222   -2.6552 H   0  0  0  0  0  0  0  0  0  0  0  0
   -2.1600    0.6244   -0.1961 H   0  0  0  0  0  0  0  0  0  0  0  0
    3.6533   -0.2935    3.4844 C   0  0  0  0  0  0  0  0  0  0  0  0
    2.4723    0.0112    4.2062 C   0  0  0  0  0  0  0  0  0  0  0  0
    4.5706   -0.6224    1.5708 H   0  0  0  0  0  0  0  0  0  0  0  0
    0.1489    0.5654    4.2094 O   0  0  0  0  0  0  0  0  0  0  0  0
    4.5905   -0.4220    4.0300 H   0  0  0  0  0  0  0  0  0  0  0  0
   -0.1266   -0.0378   -4.2581 N   0  0  0  0  0  0  0  0  0  0  0  0
   -0.9924    0.7137   -5.0501 C   0  0  0  0  0  0  0  0  0  0  0  0
   -0.7172    0.4159   -6.3548 C   0  0  0  0  0  0  0  0  0  0  0  0
    0.3120   -0.5044   -6.3521 N   0  0  0  0  0  0  0  0  0  0  0  0
    0.6598   -0.7689   -5.0789 C   0  0  0  0  0  0  0  0  0  0  0  0
    1.4385   -1.4429   -4.7526 H   0  0  0  0  0  0  0  0  0  0  0  0
    0.9364   -1.0913   -7.5366 C   0  0  0  0  0  0  0  0  0  0  0  0
   -1.1538    0.7878   -7.2732 H   0  0  0  0  0  0  0  0  0  0  0  0
   -1.7059    1.4072   -4.6256 H   0  0  0  0  0  0  0  0  0  0  0  0
    1.7182   -1.7858   -7.2153 H   0  0  0  0  0  0  0  0  0  0  0  0
    0.1809   -1.6317   -8.1185 H   0  0  0  0  0  0  0  0  0  0  0  0
    1.3792   -0.2972   -8.1492 H   0  0  0  0  0  0  0  0  0  0  0  0
    2.5367    0.0377    5.6330 N   0  0  0  0  0  0  0  0  0  0  0  0
    3.4035   -0.7135    6.4244 C   0  0  0  0  0  0  0  0  0  0  0  0
    3.1282   -0.4166    7.7293 C   0  0  0  0  0  0  0  0  0  0  0  0
    2.0981    0.5026    7.7274 N   0  0  0  0  0  0  0  0  0  0  0  0
    1.7498    0.7675    6.4543 C   0  0  0  0  0  0  0  0  0  0  0  0
    0.9702    1.4407    6.1285 H   0  0  0  0  0  0  0  0  0  0  0  0
    1.4735    1.0883    8.9122 C   0  0  0  0  0  0  0  0  0  0  0  0
    3.5654   -0.7887    8.6474 H   0  0  0  0  0  0  0  0  0  0  0  0
    4.1176   -1.4059    5.9995 H   0  0  0  0  0  0  0  0  0  0  0  0
    0.6918    1.7832    8.5915 H   0  0  0  0  0  0  0  0  0  0  0  0
    1.0305    0.2936    9.5240 H   0  0  0  0  0  0  0  0  0  0  0  0
    2.2288    1.6282    9.4949 H   0  0  0  0  0  0  0  0  0  0  0  0
  1  2  2  0
  1  6  1  0
  1 12  1  0
  2  3  1  0
  2  7  1  0
  3  4  2  0
  3  8  1  0
  4  5  1  0
  4  9  1  0
  5  6  2  0
  5 10  1  0
  6 11  1  0
  8 19  2  0
  8 21  1  0
  9 18  2  0
  9 20  1  0
 11 13  2  0
 11 15  1  0
 12 14  2  0
 12 17  1  0
 13 14  1  0
 13 23  1  0
 14 16  1  0
 18 19  1  0
 18 22  1  0
 19 35  1  0
 23 24  1  0
 23 27  1  0
 24 25  2  0
 24 31  1  0
 25 26  1  0
 25 30  1  0
 26 27  2  0
 26 29  1  0
 27 28  1  0
 29 32  1  0
 29 33  1  0
 29 34  1  0
 35 36  1  0
 35 39  1  0
 36 37  2  0
 36 43  1  0
 37 38  1  0
 37 42  1  0
 38 39  2  0
 38 41  1  0
 39 40  1  0
 41 44  1  0
 41 45  1  0
 41 46  1  0
M  CHG  4  15  -1  21  -1  26   1  38   1
M  END

