
     RDKit          3D

 66 71  0  0  0  0  0  0  0  0999 V2000
    0.1122    0.5490   -0.1308 C   0  0  0  0  0  0  0  0  0  0  0  0
   -0.0981    0.3006    1.2669 C   0  0  0  0  0  0  0  0  0  0  0  0
    0.9886   -0.0056    2.1394 C   0  0  0  0  0  0  0  0  0  0  0  0
    2.3076   -0.0083    1.5291 C   0  0  0  0  0  0  0  0  0  0  0  0
    2.5118    0.2736    0.1938 C   0  0  0  0  0  0  0  0  0  0  0  0
    1.4419    0.5796   -0.6935 C   0  0  0  0  0  0  0  0  0  0  0  0
   -1.4588    0.3584    1.8518 C   0  0  0  0  0  0  0  0  0  0  0  0
    0.8559   -0.2655    3.4072 O   0  0  0  0  0  0  0  0  0  0  0  0
    3.4767   -0.3217    2.4221 C   0  0  0  0  0  0  0  0  0  0  0  0
    3.5308    0.2435   -0.1974 H   0  0  0  0  0  0  0  0  0  0  0  0
    1.6528    0.8414   -2.0890 C   0  0  0  0  0  0  0  0  0  0  0  0
   -0.9665    0.7117   -1.0450 C   0  0  0  0  0  0  0  0  0  0  0  0
    0.5565    0.9990   -2.9893 C   0  0  0  0  0  0  0  0  0  0  0  0
   -0.7670    0.9191   -2.3944 C   0  0  0  0  0  0  0  0  0  0  0  0
    3.0223    0.9640   -2.6420 C   0  0  0  0  0  0  0  0  0  0  0  0
    0.6845    1.2097   -4.2665 O   0  0  0  0  0  0  0  0  0  0  0  0
   -1.9445    1.0849   -3.3152 C   0  0  0  0  0  0  0  0  0  0  0  0
   -1.9903    0.6529   -0.6702 H   0  0  0  0  0  0  0  0  0  0  0  0
    4.4279   -0.0217    1.9683 H   0  0  0  0  0  0  0  0  0  0  0  0
    3.3632    0.1757    3.3950 H   0  0  0  0  0  0  0  0  0  0  0  0
    3.5971   -1.7770    2.7031 N   0  0  0  0  0  0  0  0  0  0  0  0
    4.6456   -2.5999    2.3398 C   0  0  0  0  0  0  0  0  0  0  0  0
    4.3245   -3.8643    2.7548 C   0  0  0  0  0  0  0  0  0  0  0  0
    3.0826   -3.7845    3.3597 N   0  0  0  0  0  0  0  0  0  0  0  0
    2.6564   -2.5112    3.3190 C   0  0  0  0  0  0  0  0  0  0  0  0
    1.7164   -2.0769    3.6695 H   0  0  0  0  0  0  0  0  0  0  0  0
    2.3483   -4.9047    3.9485 C   0  0  0  0  0  0  0  0  0  0  0  0
    4.8653   -4.7989    2.6746 H   0  0  0  0  0  0  0  0  0  0  0  0
    5.5212   -2.2231    1.8259 H   0  0  0  0  0  0  0  0  0  0  0  0
    1.3940   -4.5351    4.3347 H   0  0  0  0  0  0  0  0  0  0  0  0
    2.1668   -5.6644    3.1799 H   0  0  0  0  0  0  0  0  0  0  0  0
    2.9352   -5.3359    4.7675 H   0  0  0  0  0  0  0  0  0  0  0  0
   -2.2182   -0.1450   -4.1053 N   0  0  0  0  0  0  0  0  0  0  0  0
   -2.8660    1.3008   -2.7631 H   0  0  0  0  0  0  0  0  0  0  0  0
   -1.7561    1.8870   -4.0416 H   0  0  0  0  0  0  0  0  0  0  0  0
   -3.3538   -0.9291   -4.0387 C   0  0  0  0  0  0  0  0  0  0  0  0
   -3.1649   -1.9803   -4.8951 C   0  0  0  0  0  0  0  0  0  0  0  0
   -1.9137   -1.8154   -5.4628 N   0  0  0  0  0  0  0  0  0  0  0  0
   -1.3540   -0.6975   -4.9719 C   0  0  0  0  0  0  0  0  0  0  0  0
   -0.3674   -0.2671   -5.1635 H   0  0  0  0  0  0  0  0  0  0  0  0
   -1.2963   -2.7136   -6.4388 C   0  0  0  0  0  0  0  0  0  0  0  0
   -3.8041   -2.8172   -5.1471 H   0  0  0  0  0  0  0  0  0  0  0  0
   -4.1909   -0.6763   -3.4000 H   0  0  0  0  0  0  0  0  0  0  0  0
   -0.3084   -2.3233   -6.7001 H   0  0  0  0  0  0  0  0  0  0  0  0
   -1.1950   -3.7130   -6.0006 H   0  0  0  0  0  0  0  0  0  0  0  0
   -1.9224   -2.7624   -7.3368 H   0  0  0  0  0  0  0  0  0  0  0  0
    3.4283    0.1834   -3.7419 C   0  0  0  0  0  0  0  0  0  0  0  0
    4.7112    0.3026   -4.2819 C   0  0  0  0  0  0  0  0  0  0  0  0
    5.6244    1.2162   -3.7404 C   0  0  0  0  0  0  0  0  0  0  0  0
    5.2360    2.0079   -2.6540 C   0  0  0  0  0  0  0  0  0  0  0  0
    3.9517    1.8828   -2.1164 C   0  0  0  0  0  0  0  0  0  0  0  0
    2.7176   -0.5222   -4.1723 H   0  0  0  0  0  0  0  0  0  0  0  0
    5.0018   -0.3208   -5.1303 H   0  0  0  0  0  0  0  0  0  0  0  0
    6.6262    1.3118   -4.1630 H   0  0  0  0  0  0  0  0  0  0  0  0
    5.9339    2.7308   -2.2264 H   0  0  0  0  0  0  0  0  0  0  0  0
    3.6546    2.5127   -1.2752 H   0  0  0  0  0  0  0  0  0  0  0  0
   -1.9772   -0.7300    2.5803 C   0  0  0  0  0  0  0  0  0  0  0  0
   -3.2546   -0.6824    3.1443 C   0  0  0  0  0  0  0  0  0  0  0  0
   -4.0481    0.4635    3.0025 C   0  0  0  0  0  0  0  0  0  0  0  0
   -3.5455    1.5597    2.2925 C   0  0  0  0  0  0  0  0  0  0  0  0
   -2.2672    1.5056    1.7285 C   0  0  0  0  0  0  0  0  0  0  0  0
   -1.3594   -1.6201    2.7001 H   0  0  0  0  0  0  0  0  0  0  0  0
   -3.6352   -1.5439    3.6972 H   0  0  0  0  0  0  0  0  0  0  0  0
   -5.0457    0.5018    3.4436 H   0  0  0  0  0  0  0  0  0  0  0  0
   -4.1487    2.4630    2.1812 H   0  0  0  0  0  0  0  0  0  0  0  0
   -1.8794    2.3690    1.1840 H   0  0  0  0  0  0  0  0  0  0  0  0
  1  2  1  0
  1  6  2  0
  1 12  1  0
  2  3  2  0
  2  7  1  0
  3  4  1  0
  3  8  1  0
  4  5  2  0
  4  9  1  0
  5  6  1  0
  5 10  1  0
  6 11  1  0
  7 57  2  0
  7 61  1  0
  9 19  1  0
  9 20  1  0
  9 21  1  0
 11 13  2  0
 11 15  1  0
 12 14  2  0
 12 18  1  0
 13 14  1  0
 13 16  1  0
 14 17  1  0
 15 47  2  0
 15 51  1  0
 17 33  1  0
 17 34  1  0
 17 35  1  0
 21 22  1  0
 21 25  1  0
 22 23  2  0
 22 29  1  0
 23 24  1  0
 23 28  1  0
 24 25  2  0
 24 27  1  0
 25 26  1  0
 27 30  1  0
 27 31  1  0
 27 32  1  0
 33 36  1  0
 33 39  1  0
 36 37  2  0
 36 43  1  0
 37 38  1  0
 37 42  1  0
 38 39  2  0
 38 41  1  0
 39 40  1  0
 41 44  1  0
 41 45  1  0
 41 46  1  0
 47 48  1  0
 47 52  1  0
 48 49  2  0
 48 53  1  0
 49 50  1  0
 49 54  1  0
 50 51  2  0
 50 55  1  0
 51 56  1  0
 57 58  1  0
 57 62  1  0
 58 59  2  0
 58 63  1  0
 59 60  1  0
 59 64  1  0
 60 61  2  0
 60 65  1  0
 61 66  1  0
M  CHG  4   8  -1  16  -1  24   1  38   1
M  END

