
     RDKit          3D

 50 53  0  0  0  0  0  0  0  0999 V2000
   -0.0206    0.5630   -0.1230 C   0  0  0  0  0  0  0  0  0  0  0  0
   -0.3023    0.1992    1.2244 C   0  0  0  0  0  0  0  0  0  0  0  0
    0.7239    0.0008    2.1885 C   0  0  0  0  0  0  0  0  0  0  0  0
    2.0769    0.1816    1.7300 C   0  0  0  0  0  0  0  0  0  0  0  0
    2.3770    0.5461    0.4226 C   0  0  0  0  0  0  0  0  0  0  0  0
    1.3542    0.7597   -0.5388 C   0  0  0  0  0  0  0  0  0  0  0  0
   -1.6244   -0.0350    1.6635 N   0  0  0  0  0  0  0  0  0  0  0  0
    0.4408   -0.3389    3.4282 O   0  0  0  0  0  0  0  0  0  0  0  0
    3.1785   -0.0237    2.7327 C   0  0  0  0  0  0  0  0  0  0  0  0
    3.4262    0.6530    0.1364 H   0  0  0  0  0  0  0  0  0  0  0  0
    1.6336    1.1534   -1.8784 C   0  0  0  0  0  0  0  0  0  0  0  0
   -1.0414    0.7422   -1.0935 C   0  0  0  0  0  0  0  0  0  0  0  0
    0.6078    1.3472   -2.8437 C   0  0  0  0  0  0  0  0  0  0  0  0
   -0.7422    1.1177   -2.3980 C   0  0  0  0  0  0  0  0  0  0  0  0
    2.9597    1.3243   -2.3348 N   0  0  0  0  0  0  0  0  0  0  0  0
    0.8896    1.7094   -4.0772 O   0  0  0  0  0  0  0  0  0  0  0  0
   -1.8444    1.3209   -3.4006 C   0  0  0  0  0  0  0  0  0  0  0  0
   -2.0864    0.5700   -0.8247 H   0  0  0  0  0  0  0  0  0  0  0  0
    4.1266    0.4073    2.3916 H   0  0  0  0  0  0  0  0  0  0  0  0
    2.9069    0.4162    3.7027 H   0  0  0  0  0  0  0  0  0  0  0  0
    3.4502   -1.4643    2.9862 N   0  0  0  0  0  0  0  0  0  0  0  0
    4.6489   -2.1244    2.7965 C   0  0  0  0  0  0  0  0  0  0  0  0
    4.4372   -3.4384    3.1172 C   0  0  0  0  0  0  0  0  0  0  0  0
    3.1101   -3.5505    3.4934 N   0  0  0  0  0  0  0  0  0  0  0  0
    2.5266   -2.3435    3.4072 C   0  0  0  0  0  0  0  0  0  0  0  0
    1.4926   -2.0513    3.6163 H   0  0  0  0  0  0  0  0  0  0  0  0
    2.4450   -4.7838    3.9137 C   0  0  0  0  0  0  0  0  0  0  0  0
    5.1060   -4.2899    3.1101 H   0  0  0  0  0  0  0  0  0  0  0  0
    5.5396   -1.6125    2.4543 H   0  0  0  0  0  0  0  0  0  0  0  0
    1.3980   -4.5590    4.1370 H   0  0  0  0  0  0  0  0  0  0  0  0
    2.4999   -5.5208    3.1043 H   0  0  0  0  0  0  0  0  0  0  0  0
    2.9380   -5.1777    4.8096 H   0  0  0  0  0  0  0  0  0  0  0  0
   -1.9564    0.1884   -4.3593 N   0  0  0  0  0  0  0  0  0  0  0  0
   -2.8244    1.4054   -2.9174 H   0  0  0  0  0  0  0  0  0  0  0  0
   -1.6579    2.2203   -4.0041 H   0  0  0  0  0  0  0  0  0  0  0  0
   -3.0658   -0.6071   -4.5708 C   0  0  0  0  0  0  0  0  0  0  0  0
   -2.7170   -1.5383   -5.5117 C   0  0  0  0  0  0  0  0  0  0  0  0
   -1.3984   -1.2905   -5.8512 N   0  0  0  0  0  0  0  0  0  0  0  0
   -0.9530   -0.2400   -5.1421 C   0  0  0  0  0  0  0  0  0  0  0  0
    0.0340    0.2342   -5.1395 H   0  0  0  0  0  0  0  0  0  0  0  0
   -0.6135   -2.0463   -6.8273 C   0  0  0  0  0  0  0  0  0  0  0  0
   -3.2844   -2.3433   -5.9619 H   0  0  0  0  0  0  0  0  0  0  0  0
   -3.9974   -0.4473   -4.0424 H   0  0  0  0  0  0  0  0  0  0  0  0
    0.4000   -1.6353   -6.8561 H   0  0  0  0  0  0  0  0  0  0  0  0
   -0.5764   -3.0996   -6.5271 H   0  0  0  0  0  0  0  0  0  0  0  0
   -1.0768   -1.9576   -7.8167 H   0  0  0  0  0  0  0  0  0  0  0  0
   -1.6227   -0.0653    2.6877 H   0  0  0  0  0  0  0  0  0  0  0  0
   -2.3046    0.6460    1.3253 H   0  0  0  0  0  0  0  0  0  0  0  0
    2.9298    1.8117   -3.2355 H   0  0  0  0  0  0  0  0  0  0  0  0
    3.5680    1.8158   -1.6796 H   0  0  0  0  0  0  0  0  0  0  0  0
  1  2  2  0
  1  6  1  0
  1 12  1  0
  2  3  1  0
  2  7  1  0
  3  4  2  0
  3  8  1  0
  4  5  1  0
  4  9  1  0
  5  6  2  0
  5 10  1  0
  6 11  1  0
  7 47  1  0
  7 48  1  0
  9 19  1  0
  9 20  1  0
  9 21  1  0
 11 13  2  0
 11 15  1  0
 12 14  2  0
 12 18  1  0
 13 14  1  0
 13 16  1  0
 14 17  1  0
 15 49  1  0
 15 50  1  0
 17 33  1  0
 17 34  1  0
 17 35  1  0
 21 22  1  0
 21 25  1  0
 22 23  2  0
 22 29  1  0
 23 24  1  0
 23 28  1  0
 24 25  2  0
 24 27  1  0
 25 26  1  0
 27 30  1  0
 27 31  1  0
 27 32  1  0
 33 36  1  0
 33 39  1  0
 36 37  2  0
 36 43  1  0
 37 38  1  0
 37 42  1  0
 38 39  2  0
 38 41  1  0
 39 40  1  0
 41 44  1  0
 41 45  1  0
 41 46  1  0
M  CHG  4   8  -1  16  -1  24   1  38   1
M  END

