
     RDKit          3D

 46 49  0  0  0  0  0  0  0  0999 V2000
    0.0530   -0.0323    0.1037 C   0  0  0  0  0  0  0  0  0  0  0  0
    0.3391   -0.1174    1.5020 C   0  0  0  0  0  0  0  0  0  0  0  0
    1.6694   -0.0801    2.0129 C   0  0  0  0  0  0  0  0  0  0  0  0
    2.7155   -0.0541    1.0202 C   0  0  0  0  0  0  0  0  0  0  0  0
    2.4579    0.0008   -0.3325 C   0  0  0  0  0  0  0  0  0  0  0  0
    1.1294    0.0336   -0.8557 C   0  0  0  0  0  0  0  0  0  0  0  0
   -0.7503   -0.2145    2.5270 C   0  0  0  0  0  0  0  0  0  0  0  0
    1.9410   -0.0608    3.2871 O   0  0  0  0  0  0  0  0  0  0  0  0
    3.7473   -0.0668    1.3832 H   0  0  0  0  0  0  0  0  0  0  0  0
    3.3078    0.0212   -1.0181 H   0  0  0  0  0  0  0  0  0  0  0  0
    0.8432    0.1183   -2.2540 C   0  0  0  0  0  0  0  0  0  0  0  0
   -1.2756    0.0006   -0.4194 C   0  0  0  0  0  0  0  0  0  0  0  0
   -0.4871    0.0806   -2.7648 C   0  0  0  0  0  0  0  0  0  0  0  0
   -1.5332    0.0550   -1.7721 C   0  0  0  0  0  0  0  0  0  0  0  0
    1.9326    0.2149   -3.2789 C   0  0  0  0  0  0  0  0  0  0  0  0
   -0.7588    0.0604   -4.0391 O   0  0  0  0  0  0  0  0  0  0  0  0
   -2.5650    0.0676   -2.1351 H   0  0  0  0  0  0  0  0  0  0  0  0
   -2.1255   -0.0195    0.2663 H   0  0  0  0  0  0  0  0  0  0  0  0
   -0.3935   -0.7990    3.3859 H   0  0  0  0  0  0  0  0  0  0  0  0
   -1.1294    1.1219    3.0703 N   0  0  0  0  0  0  0  0  0  0  0  0
   -1.6770   -0.6618    2.1524 H   0  0  0  0  0  0  0  0  0  0  0  0
   -2.3332    1.7793    2.9133 C   0  0  0  0  0  0  0  0  0  0  0  0
   -2.2030    3.0034    3.5142 C   0  0  0  0  0  0  0  0  0  0  0  0
   -0.9177    3.0658    4.0228 N   0  0  0  0  0  0  0  0  0  0  0  0
   -0.2815    1.9160    3.7421 C   0  0  0  0  0  0  0  0  0  0  0  0
    0.7457    1.6320    3.9699 H   0  0  0  0  0  0  0  0  0  0  0  0
   -0.3423    4.1985    4.7481 C   0  0  0  0  0  0  0  0  0  0  0  0
   -2.9034    3.8218    3.6237 H   0  0  0  0  0  0  0  0  0  0  0  0
   -3.1720    1.3288    2.3977 H   0  0  0  0  0  0  0  0  0  0  0  0
    0.6859    3.9508    5.0276 H   0  0  0  0  0  0  0  0  0  0  0  0
   -0.3468    5.0841    4.1027 H   0  0  0  0  0  0  0  0  0  0  0  0
   -0.9337    4.3923    5.6503 H   0  0  0  0  0  0  0  0  0  0  0  0
    2.3120   -1.1218   -3.8214 N   0  0  0  0  0  0  0  0  0  0  0  0
    1.5758    0.7988   -4.1383 H   0  0  0  0  0  0  0  0  0  0  0  0
    2.8592    0.6627   -2.9047 H   0  0  0  0  0  0  0  0  0  0  0  0
    3.5163   -1.7783   -3.6648 C   0  0  0  0  0  0  0  0  0  0  0  0
    3.3863   -3.0031   -4.2644 C   0  0  0  0  0  0  0  0  0  0  0  0
    2.1006   -3.0667   -4.7717 N   0  0  0  0  0  0  0  0  0  0  0  0
    1.4640   -1.9170   -4.4916 C   0  0  0  0  0  0  0  0  0  0  0  0
    0.4366   -1.6336   -4.7193 H   0  0  0  0  0  0  0  0  0  0  0  0
    1.5252   -4.2004   -5.4956 C   0  0  0  0  0  0  0  0  0  0  0  0
    4.0870   -3.8213   -4.3735 H   0  0  0  0  0  0  0  0  0  0  0  0
    4.3553   -1.3268   -3.1503 H   0  0  0  0  0  0  0  0  0  0  0  0
    0.4954   -3.9549   -5.7712 H   0  0  0  0  0  0  0  0  0  0  0  0
    2.1138   -4.3925   -6.4000 H   0  0  0  0  0  0  0  0  0  0  0  0
    1.5341   -5.0863   -4.8505 H   0  0  0  0  0  0  0  0  0  0  0  0
  1  2  1  0
  1  6  2  0
  1 12  1  0
  2  3  2  0
  2  7  1  0
  3  4  1  0
  3  8  1  0
  4  5  2  0
  4  9  1  0
  5  6  1  0
  5 10  1  0
  6 11  1  0
  7 19  1  0
  7 20  1  0
  7 21  1  0
 11 13  2  0
 11 15  1  0
 12 14  2  0
 12 18  1  0
 13 14  1  0
 13 16  1  0
 14 17  1  0
 15 33  1  0
 15 34  1  0
 15 35  1  0
 20 22  1  0
 20 25  1  0
 22 23  2  0
 22 29  1  0
 23 24  1  0
 23 28  1  0
 24 25  2  0
 24 27  1  0
 25 26  1  0
 27 30  1  0
 27 31  1  0
 27 32  1  0
 33 36  1  0
 33 39  1  0
 36 37  2  0
 36 43  1  0
 37 38  1  0
 37 42  1  0
 38 39  2  0
 38 41  1  0
 39 40  1  0
 41 44  1  0
 41 45  1  0
 41 46  1  0
M  CHG  4   8  -1  16  -1  24   1  38   1
M  END

