
     RDKit          3D

 50 53  0  0  0  0  0  0  0  0999 V2000
    0.0578   -0.0476    0.0800 C   0  0  0  0  0  0  0  0  0  0  0  0
    0.3597   -0.1477    1.4777 C   0  0  0  0  0  0  0  0  0  0  0  0
    1.6829   -0.1067    1.9830 C   0  0  0  0  0  0  0  0  0  0  0  0
    2.7515   -0.0482    0.9987 C   0  0  0  0  0  0  0  0  0  0  0  0
    2.4710    0.0263   -0.3553 C   0  0  0  0  0  0  0  0  0  0  0  0
    1.1387    0.0478   -0.8646 C   0  0  0  0  0  0  0  0  0  0  0  0
   -0.7223   -0.2463    2.5094 C   0  0  0  0  0  0  0  0  0  0  0  0
    1.9762   -0.0943    3.2579 O   0  0  0  0  0  0  0  0  0  0  0  0
    4.0595   -0.1149    1.5081 N   0  0  0  0  0  0  0  0  0  0  0  0
    3.3166    0.0724   -1.0470 H   0  0  0  0  0  0  0  0  0  0  0  0
    0.8367    0.1483   -2.2623 C   0  0  0  0  0  0  0  0  0  0  0  0
   -1.2745   -0.0268   -0.4294 C   0  0  0  0  0  0  0  0  0  0  0  0
   -0.4866    0.1070   -2.7676 C   0  0  0  0  0  0  0  0  0  0  0  0
   -1.5551    0.0473   -1.7834 C   0  0  0  0  0  0  0  0  0  0  0  0
    1.9186    0.2475   -3.2941 C   0  0  0  0  0  0  0  0  0  0  0  0
   -0.7798    0.0955   -4.0426 O   0  0  0  0  0  0  0  0  0  0  0  0
   -2.8632    0.1125   -2.2927 N   0  0  0  0  0  0  0  0  0  0  0  0
   -2.1201   -0.0737    0.2623 H   0  0  0  0  0  0  0  0  0  0  0  0
   -0.3624   -0.8216    3.3730 H   0  0  0  0  0  0  0  0  0  0  0  0
   -1.1090    1.0936    3.0428 N   0  0  0  0  0  0  0  0  0  0  0  0
   -1.6479   -0.7009    2.1401 H   0  0  0  0  0  0  0  0  0  0  0  0
   -2.3298    1.7262    2.9232 C   0  0  0  0  0  0  0  0  0  0  0  0
   -2.1996    2.9622    3.4996 C   0  0  0  0  0  0  0  0  0  0  0  0
   -0.8968    3.0559    3.9565 N   0  0  0  0  0  0  0  0  0  0  0  0
   -0.2507    1.9135    3.6681 C   0  0  0  0  0  0  0  0  0  0  0  0
    0.7881    1.6514    3.8677 H   0  0  0  0  0  0  0  0  0  0  0  0
   -0.3155    4.2098    4.6426 C   0  0  0  0  0  0  0  0  0  0  0  0
   -2.9097    3.7705    3.6220 H   0  0  0  0  0  0  0  0  0  0  0  0
   -3.1788    1.2525    2.4465 H   0  0  0  0  0  0  0  0  0  0  0  0
    0.7297    3.9887    4.8781 H   0  0  0  0  0  0  0  0  0  0  0  0
   -0.3689    5.0872    3.9880 H   0  0  0  0  0  0  0  0  0  0  0  0
   -0.8699    4.4018    5.5683 H   0  0  0  0  0  0  0  0  0  0  0  0
    2.3044   -1.0920   -3.8289 N   0  0  0  0  0  0  0  0  0  0  0  0
    1.5589    0.8238   -4.1571 H   0  0  0  0  0  0  0  0  0  0  0  0
    2.8444    0.7014   -2.9245 H   0  0  0  0  0  0  0  0  0  0  0  0
    3.5206   -1.7312   -3.6978 C   0  0  0  0  0  0  0  0  0  0  0  0
    3.3900   -2.9655   -4.2777 C   0  0  0  0  0  0  0  0  0  0  0  0
    2.0915   -3.0517   -4.7481 N   0  0  0  0  0  0  0  0  0  0  0  0
    1.4484   -1.9064   -4.4646 C   0  0  0  0  0  0  0  0  0  0  0  0
    0.4124   -1.6392   -4.6720 H   0  0  0  0  0  0  0  0  0  0  0  0
    1.5115   -4.2012   -5.4426 C   0  0  0  0  0  0  0  0  0  0  0  0
    4.0972   -3.7770   -4.3946 H   0  0  0  0  0  0  0  0  0  0  0  0
    4.3671   -1.2628   -3.2115 H   0  0  0  0  0  0  0  0  0  0  0  0
    0.4681   -3.9766   -5.6832 H   0  0  0  0  0  0  0  0  0  0  0  0
    2.0707   -4.3905   -6.3660 H   0  0  0  0  0  0  0  0  0  0  0  0
    1.5591   -5.0815   -4.7916 H   0  0  0  0  0  0  0  0  0  0  0  0
    4.7549    0.4007    0.9720 H   0  0  0  0  0  0  0  0  0  0  0  0
    4.0628    0.1480    2.4965 H   0  0  0  0  0  0  0  0  0  0  0  0
   -2.8666   -0.1520   -3.2807 H   0  0  0  0  0  0  0  0  0  0  0  0
   -3.5580   -0.4028   -1.7556 H   0  0  0  0  0  0  0  0  0  0  0  0
  1  2  1  0
  1  6  2  0
  1 12  1  0
  2  3  2  0
  2  7  1  0
  3  4  1  0
  3  8  1  0
  4  5  2  0
  4  9  1  0
  5  6  1  0
  5 10  1  0
  6 11  1  0
  7 19  1  0
  7 20  1  0
  7 21  1  0
  9 47  1  0
  9 48  1  0
 11 13  2  0
 11 15  1  0
 12 14  2  0
 12 18  1  0
 13 14  1  0
 13 16  1  0
 14 17  1  0
 15 33  1  0
 15 34  1  0
 15 35  1  0
 17 49  1  0
 17 50  1  0
 20 22  1  0
 20 25  1  0
 22 23  2  0
 22 29  1  0
 23 24  1  0
 23 28  1  0
 24 25  2  0
 24 27  1  0
 25 26  1  0
 27 30  1  0
 27 31  1  0
 27 32  1  0
 33 36  1  0
 33 39  1  0
 36 37  2  0
 36 43  1  0
 37 38  1  0
 37 42  1  0
 38 39  2  0
 38 41  1  0
 39 40  1  0
 41 44  1  0
 41 45  1  0
 41 46  1  0
M  CHG  4   8  -1  16  -1  24   1  38   1
M  END

