
     RDKit          3D

 60 63  0  0  0  0  0  0  0  0999 V2000
    0.0246    0.0250    0.0716 C   0  0  0  0  0  0  0  0  0  0  0  0
    0.2120   -0.1816    1.4743 C   0  0  0  0  0  0  0  0  0  0  0  0
    1.4882   -0.3991    2.0456 C   0  0  0  0  0  0  0  0  0  0  0  0
    2.6013   -0.5190    1.1089 C   0  0  0  0  0  0  0  0  0  0  0  0
    2.4334   -0.3089   -0.2466 C   0  0  0  0  0  0  0  0  0  0  0  0
    1.1577   -0.0300   -0.8132 C   0  0  0  0  0  0  0  0  0  0  0  0
   -0.9333   -0.1312    2.4396 C   0  0  0  0  0  0  0  0  0  0  0  0
    1.7123   -0.4791    3.3250 O   0  0  0  0  0  0  0  0  0  0  0  0
    3.8164   -0.7863    1.7639 N   0  0  0  0  0  0  0  0  0  0  0  0
    3.3037   -0.3328   -0.8967 H   0  0  0  0  0  0  0  0  0  0  0  0
    0.9702    0.1775   -2.2156 C   0  0  0  0  0  0  0  0  0  0  0  0
   -1.2513    0.3031   -0.4948 C   0  0  0  0  0  0  0  0  0  0  0  0
   -0.3060    0.3954   -2.7868 C   0  0  0  0  0  0  0  0  0  0  0  0
   -1.4194    0.5133   -1.8502 C   0  0  0  0  0  0  0  0  0  0  0  0
    2.1156    0.1293   -3.1811 C   0  0  0  0  0  0  0  0  0  0  0  0
   -0.5298    0.4774   -4.0662 O   0  0  0  0  0  0  0  0  0  0  0  0
   -2.6348    0.7794   -2.5053 N   0  0  0  0  0  0  0  0  0  0  0  0
   -2.1215    0.3265    0.1554 H   0  0  0  0  0  0  0  0  0  0  0  0
   -0.7153   -0.7690    3.3062 H   0  0  0  0  0  0  0  0  0  0  0  0
   -1.1503    1.2427    2.9758 N   0  0  0  0  0  0  0  0  0  0  0  0
   -1.8905   -0.4414    2.0077 H   0  0  0  0  0  0  0  0  0  0  0  0
   -2.2747    2.0306    2.8340 C   0  0  0  0  0  0  0  0  0  0  0  0
   -2.0019    3.2310    3.4345 C   0  0  0  0  0  0  0  0  0  0  0  0
   -0.7123    3.1480    3.9285 N   0  0  0  0  0  0  0  0  0  0  0  0
   -0.2121    1.9357    3.6388 C   0  0  0  0  0  0  0  0  0  0  0  0
    0.7740    1.5443    3.8787 H   0  0  0  0  0  0  0  0  0  0  0  0
   -0.0086    4.2064    4.6537 C   0  0  0  0  0  0  0  0  0  0  0  0
   -2.6045    4.1230    3.5503 H   0  0  0  0  0  0  0  0  0  0  0  0
   -3.1667    1.6759    2.3334 H   0  0  0  0  0  0  0  0  0  0  0  0
    0.9946    3.8516    4.9071 H   0  0  0  0  0  0  0  0  0  0  0  0
    0.0630    5.0958    4.0178 H   0  0  0  0  0  0  0  0  0  0  0  0
   -0.5585    4.4469    5.5706 H   0  0  0  0  0  0  0  0  0  0  0  0
    2.3316   -1.2428   -3.7221 N   0  0  0  0  0  0  0  0  0  0  0  0
    1.8984    0.7703   -4.0455 H   0  0  0  0  0  0  0  0  0  0  0  0
    3.0730    0.4373   -2.7480 H   0  0  0  0  0  0  0  0  0  0  0  0
    3.4521   -2.0353   -3.5755 C   0  0  0  0  0  0  0  0  0  0  0  0
    3.1789   -3.2327   -4.1819 C   0  0  0  0  0  0  0  0  0  0  0  0
    1.8929   -3.1432   -4.6841 N   0  0  0  0  0  0  0  0  0  0  0  0
    1.3953   -1.9300   -4.3938 C   0  0  0  0  0  0  0  0  0  0  0  0
    0.4119   -1.5341   -4.6378 H   0  0  0  0  0  0  0  0  0  0  0  0
    1.1902   -4.1964   -5.4179 C   0  0  0  0  0  0  0  0  0  0  0  0
    3.7792   -4.1264   -4.2972 H   0  0  0  0  0  0  0  0  0  0  0  0
    4.3422   -1.6857   -3.0679 H   0  0  0  0  0  0  0  0  0  0  0  0
    0.1887   -3.8386   -5.6732 H   0  0  0  0  0  0  0  0  0  0  0  0
    1.7433   -4.4330   -6.3340 H   0  0  0  0  0  0  0  0  0  0  0  0
    1.1148   -5.0891   -4.7870 H   0  0  0  0  0  0  0  0  0  0  0  0
    3.6987   -0.6573    2.7789 H   0  0  0  0  0  0  0  0  0  0  0  0
    4.9921   -1.3704    1.3879 C   0  0  0  0  0  0  0  0  0  0  0  0
    5.9009   -1.5210    2.2281 O   0  0  0  0  0  0  0  0  0  0  0  0
    5.1637   -1.8382   -0.0387 C   0  0  0  0  0  0  0  0  0  0  0  0
    4.2565   -2.3295   -0.4167 H   0  0  0  0  0  0  0  0  0  0  0  0
    5.3902   -0.9851   -0.6955 H   0  0  0  0  0  0  0  0  0  0  0  0
    6.0094   -2.5331   -0.0739 H   0  0  0  0  0  0  0  0  0  0  0  0
   -2.5167    0.6509   -3.5203 H   0  0  0  0  0  0  0  0  0  0  0  0
   -3.8117    1.3607   -2.1291 C   0  0  0  0  0  0  0  0  0  0  0  0
   -4.7205    1.5104   -2.9695 O   0  0  0  0  0  0  0  0  0  0  0  0
   -3.9848    1.8266   -0.7020 C   0  0  0  0  0  0  0  0  0  0  0  0
   -3.0794    2.3213   -0.3241 H   0  0  0  0  0  0  0  0  0  0  0  0
   -4.8333    2.5179   -0.6659 H   0  0  0  0  0  0  0  0  0  0  0  0
   -4.2074    0.9721   -0.0456 H   0  0  0  0  0  0  0  0  0  0  0  0
  1  2  1  0
  1  6  2  0
  1 12  1  0
  2  3  2  0
  2  7  1  0
  3  4  1  0
  3  8  1  0
  4  5  2  0
  4  9  1  0
  5  6  1  0
  5 10  1  0
  6 11  1  0
  7 19  1  0
  7 20  1  0
  7 21  1  0
  9 47  1  0
  9 48  1  0
 11 13  2  0
 11 15  1  0
 12 14  2  0
 12 18  1  0
 13 14  1  0
 13 16  1  0
 14 17  1  0
 15 33  1  0
 15 34  1  0
 15 35  1  0
 17 54  1  0
 17 55  1  0
 20 22  1  0
 20 25  1  0
 22 23  2  0
 22 29  1  0
 23 24  1  0
 23 28  1  0
 24 25  2  0
 24 27  1  0
 25 26  1  0
 27 30  1  0
 27 31  1  0
 27 32  1  0
 33 36  1  0
 33 39  1  0
 36 37  2  0
 36 43  1  0
 37 38  1  0
 37 42  1  0
 38 39  2  0
 38 41  1  0
 39 40  1  0
 41 44  1  0
 41 45  1  0
 41 46  1  0
 48 49  2  0
 48 50  1  0
 50 51  1  0
 50 52  1  0
 50 53  1  0
 55 56  2  0
 55 57  1  0
 57 58  1  0
 57 59  1  0
 57 60  1  0
M  CHG  4   8  -1  16  -1  24   1  38   1
M  END

