
     RDKit          3D

 52 55  0  0  0  0  0  0  0  0999 V2000
    0.0505   -0.0322    0.0975 C   0  0  0  0  0  0  0  0  0  0  0  0
    0.3366   -0.1166    1.4956 C   0  0  0  0  0  0  0  0  0  0  0  0
    1.6633   -0.0832    2.0114 C   0  0  0  0  0  0  0  0  0  0  0  0
    2.7382   -0.0530    1.0357 C   0  0  0  0  0  0  0  0  0  0  0  0
    2.4599   -0.0004   -0.3169 C   0  0  0  0  0  0  0  0  0  0  0  0
    1.1350    0.0320   -0.8467 C   0  0  0  0  0  0  0  0  0  0  0  0
   -0.7545   -0.2107    2.5184 C   0  0  0  0  0  0  0  0  0  0  0  0
    1.9236   -0.0682    3.2878 O   0  0  0  0  0  0  0  0  0  0  0  0
    4.1492   -0.0657    1.5539 C   0  0  0  0  0  0  0  0  0  0  0  0
    3.3090    0.0225   -1.0060 H   0  0  0  0  0  0  0  0  0  0  0  0
    0.8489    0.1168   -2.2447 C   0  0  0  0  0  0  0  0  0  0  0  0
   -1.2744    0.0000   -0.4322 C   0  0  0  0  0  0  0  0  0  0  0  0
   -0.4779    0.0840   -2.7605 C   0  0  0  0  0  0  0  0  0  0  0  0
   -1.5528    0.0532   -1.7847 C   0  0  0  0  0  0  0  0  0  0  0  0
    1.9399    0.2101   -3.2677 C   0  0  0  0  0  0  0  0  0  0  0  0
   -0.7382    0.0704   -4.0368 O   0  0  0  0  0  0  0  0  0  0  0  0
   -2.9638    0.0656   -2.3029 C   0  0  0  0  0  0  0  0  0  0  0  0
   -2.1234   -0.0232    0.2570 H   0  0  0  0  0  0  0  0  0  0  0  0
   -0.4028   -0.7963    3.3788 H   0  0  0  0  0  0  0  0  0  0  0  0
   -1.1301    1.1278    3.0617 N   0  0  0  0  0  0  0  0  0  0  0  0
   -1.6827   -0.6525    2.1406 H   0  0  0  0  0  0  0  0  0  0  0  0
   -2.3431    1.7746    2.9369 C   0  0  0  0  0  0  0  0  0  0  0  0
   -2.2056    3.0031    3.5274 C   0  0  0  0  0  0  0  0  0  0  0  0
   -0.9063    3.0783    3.9976 N   0  0  0  0  0  0  0  0  0  0  0  0
   -0.2692    1.9321    3.7039 C   0  0  0  0  0  0  0  0  0  0  0  0
    0.7653    1.6539    3.9069 H   0  0  0  0  0  0  0  0  0  0  0  0
   -0.3193    4.2188    4.7010 C   0  0  0  0  0  0  0  0  0  0  0  0
   -2.9088    3.8169    3.6523 H   0  0  0  0  0  0  0  0  0  0  0  0
   -3.1928    1.3146    2.4481 H   0  0  0  0  0  0  0  0  0  0  0  0
    0.7225    3.9856    4.9401 H   0  0  0  0  0  0  0  0  0  0  0  0
   -0.3610    5.1044    4.0568 H   0  0  0  0  0  0  0  0  0  0  0  0
   -0.8776    4.4046    5.6257 H   0  0  0  0  0  0  0  0  0  0  0  0
    2.3128   -1.1287   -3.8120 N   0  0  0  0  0  0  0  0  0  0  0  0
    1.5890    0.7969   -4.1277 H   0  0  0  0  0  0  0  0  0  0  0  0
    2.8689    0.6500   -2.8899 H   0  0  0  0  0  0  0  0  0  0  0  0
    3.5212   -1.7824   -3.6782 C   0  0  0  0  0  0  0  0  0  0  0  0
    3.3815   -3.0094   -4.2713 C   0  0  0  0  0  0  0  0  0  0  0  0
    2.0857   -3.0770   -4.7518 N   0  0  0  0  0  0  0  0  0  0  0  0
    1.4526   -1.9275   -4.4620 C   0  0  0  0  0  0  0  0  0  0  0  0
    0.4207   -1.6438   -4.6708 H   0  0  0  0  0  0  0  0  0  0  0  0
    1.4981   -4.2132   -5.4616 C   0  0  0  0  0  0  0  0  0  0  0  0
    4.0813   -3.8269   -4.3918 H   0  0  0  0  0  0  0  0  0  0  0  0
    4.3696   -1.3278   -3.1822 H   0  0  0  0  0  0  0  0  0  0  0  0
    0.4581   -3.9758   -5.7043 H   0  0  0  0  0  0  0  0  0  0  0  0
    2.0597   -4.3978   -6.3845 H   0  0  0  0  0  0  0  0  0  0  0  0
    1.5342   -5.1010   -4.8201 H   0  0  0  0  0  0  0  0  0  0  0  0
    4.8818   -0.0681    0.7343 H   0  0  0  0  0  0  0  0  0  0  0  0
    4.3407    0.8095    2.1957 H   0  0  0  0  0  0  0  0  0  0  0  0
    4.3275   -0.9465    2.1916 H   0  0  0  0  0  0  0  0  0  0  0  0
   -3.1424    0.9468   -2.9401 H   0  0  0  0  0  0  0  0  0  0  0  0
   -3.1548   -0.8092   -2.9453 H   0  0  0  0  0  0  0  0  0  0  0  0
   -3.6963    0.0673   -1.4833 H   0  0  0  0  0  0  0  0  0  0  0  0
  1  2  1  0
  1  6  2  0
  1 12  1  0
  2  3  2  0
  2  7  1  0
  3  4  1  0
  3  8  1  0
  4  5  2  0
  4  9  1  0
  5  6  1  0
  5 10  1  0
  6 11  1  0
  7 19  1  0
  7 20  1  0
  7 21  1  0
  9 47  1  0
  9 48  1  0
  9 49  1  0
 11 13  2  0
 11 15  1  0
 12 14  2  0
 12 18  1  0
 13 14  1  0
 13 16  1  0
 14 17  1  0
 15 33  1  0
 15 34  1  0
 15 35  1  0
 17 50  1  0
 17 51  1  0
 17 52  1  0
 20 22  1  0
 20 25  1  0
 22 23  2  0
 22 29  1  0
 23 24  1  0
 23 28  1  0
 24 25  2  0
 24 27  1  0
 25 26  1  0
 27 30  1  0
 27 31  1  0
 27 32  1  0
 33 36  1  0
 33 39  1  0
 36 37  2  0
 36 43  1  0
 37 38  1  0
 37 42  1  0
 38 39  2  0
 38 41  1  0
 39 40  1  0
 41 44  1  0
 41 45  1  0
 41 46  1  0
M  CHG  4   8  -1  16  -1  24   1  38   1
M  END

