
     RDKit          3D

 48 51  0  0  0  0  0  0  0  0999 V2000
    0.0512   -0.0472    0.0995 C   0  0  0  0  0  0  0  0  0  0  0  0
    0.3451   -0.1344    1.5012 C   0  0  0  0  0  0  0  0  0  0  0  0
    1.6667   -0.0803    1.9867 C   0  0  0  0  0  0  0  0  0  0  0  0
    2.7185    0.0001    1.0005 C   0  0  0  0  0  0  0  0  0  0  0  0
    2.4711    0.0574   -0.3505 C   0  0  0  0  0  0  0  0  0  0  0  0
    1.1320    0.0495   -0.8515 C   0  0  0  0  0  0  0  0  0  0  0  0
   -0.7302   -0.2342    2.5409 C   0  0  0  0  0  0  0  0  0  0  0  0
    2.0306   -0.0866    3.2474 O   0  0  0  0  0  0  0  0  0  0  0  0
    3.9837    0.0232    1.5351 O   0  0  0  0  0  0  0  0  0  0  0  0
    3.3234    0.1189   -1.0295 H   0  0  0  0  0  0  0  0  0  0  0  0
    0.8382    0.1362   -2.2533 C   0  0  0  0  0  0  0  0  0  0  0  0
   -1.2879   -0.0549   -0.4015 C   0  0  0  0  0  0  0  0  0  0  0  0
   -0.4834    0.0820   -2.7388 C   0  0  0  0  0  0  0  0  0  0  0  0
   -1.5353    0.0022   -1.7525 C   0  0  0  0  0  0  0  0  0  0  0  0
    1.9134    0.2349   -3.2931 C   0  0  0  0  0  0  0  0  0  0  0  0
   -0.8474    0.0878   -3.9995 O   0  0  0  0  0  0  0  0  0  0  0  0
   -2.8005   -0.0205   -2.2871 O   0  0  0  0  0  0  0  0  0  0  0  0
   -2.1402   -0.1159    0.2775 H   0  0  0  0  0  0  0  0  0  0  0  0
   -0.3673   -0.8120    3.4013 H   0  0  0  0  0  0  0  0  0  0  0  0
   -1.1065    1.1068    3.0737 N   0  0  0  0  0  0  0  0  0  0  0  0
   -1.6583   -0.6899    2.1804 H   0  0  0  0  0  0  0  0  0  0  0  0
   -2.2900    1.7865    2.8672 C   0  0  0  0  0  0  0  0  0  0  0  0
   -2.1573    3.0128    3.4627 C   0  0  0  0  0  0  0  0  0  0  0  0
   -0.8903    3.0549    4.0167 N   0  0  0  0  0  0  0  0  0  0  0  0
   -0.2679    1.8906    3.7689 C   0  0  0  0  0  0  0  0  0  0  0  0
    0.7480    1.6037    4.0335 H   0  0  0  0  0  0  0  0  0  0  0  0
   -0.3205    4.1817    4.7559 C   0  0  0  0  0  0  0  0  0  0  0  0
   -2.8452    3.8453    3.5409 H   0  0  0  0  0  0  0  0  0  0  0  0
   -3.1180    1.3479    2.3246 H   0  0  0  0  0  0  0  0  0  0  0  0
    0.6973    3.9227    5.0617 H   0  0  0  0  0  0  0  0  0  0  0  0
   -0.2986    5.0661    4.1093 H   0  0  0  0  0  0  0  0  0  0  0  0
   -0.9328    4.3832    5.6422 H   0  0  0  0  0  0  0  0  0  0  0  0
    2.2892   -1.1067   -3.8246 N   0  0  0  0  0  0  0  0  0  0  0  0
    1.5507    0.8120   -4.1540 H   0  0  0  0  0  0  0  0  0  0  0  0
    2.8417    0.6907   -2.9331 H   0  0  0  0  0  0  0  0  0  0  0  0
    3.4712   -1.7881   -3.6144 C   0  0  0  0  0  0  0  0  0  0  0  0
    3.3380   -3.0148   -4.2089 C   0  0  0  0  0  0  0  0  0  0  0  0
    2.0723   -3.0556   -4.7658 N   0  0  0  0  0  0  0  0  0  0  0  0
    1.4511   -1.8900   -4.5209 C   0  0  0  0  0  0  0  0  0  0  0  0
    0.4363   -1.6020   -4.7880 H   0  0  0  0  0  0  0  0  0  0  0  0
    1.5028   -4.1820   -5.5059 C   0  0  0  0  0  0  0  0  0  0  0  0
    4.0248   -3.8485   -4.2845 H   0  0  0  0  0  0  0  0  0  0  0  0
    4.2985   -1.3504   -3.0700 H   0  0  0  0  0  0  0  0  0  0  0  0
    0.4839   -3.9241   -5.8091 H   0  0  0  0  0  0  0  0  0  0  0  0
    2.1136   -4.3812   -6.3937 H   0  0  0  0  0  0  0  0  0  0  0  0
    1.4836   -5.0674   -4.8606 H   0  0  0  0  0  0  0  0  0  0  0  0
    3.7636   -0.0168    2.5123 H   0  0  0  0  0  0  0  0  0  0  0  0
   -2.5805    0.0188   -3.2643 H   0  0  0  0  0  0  0  0  0  0  0  0
  1  2  1  0
  1  6  2  0
  1 12  1  0
  2  3  2  0
  2  7  1  0
  3  4  1  0
  3  8  1  0
  4  5  2  0
  4  9  1  0
  5  6  1  0
  5 10  1  0
  6 11  1  0
  7 19  1  0
  7 20  1  0
  7 21  1  0
  9 47  1  0
 11 13  2  0
 11 15  1  0
 12 14  2  0
 12 18  1  0
 13 14  1  0
 13 16  1  0
 14 17  1  0
 15 33  1  0
 15 34  1  0
 15 35  1  0
 17 48  1  0
 20 22  1  0
 20 25  1  0
 22 23  2  0
 22 29  1  0
 23 24  1  0
 23 28  1  0
 24 25  2  0
 24 27  1  0
 25 26  1  0
 27 30  1  0
 27 31  1  0
 27 32  1  0
 33 36  1  0
 33 39  1  0
 36 37  2  0
 36 43  1  0
 37 38  1  0
 37 42  1  0
 38 39  2  0
 38 41  1  0
 39 40  1  0
 41 44  1  0
 41 45  1  0
 41 46  1  0
M  CHG  4   8  -1  16  -1  24   1  38   1
M  END

