
     RDKit          3D

 52 57  0  0  0  0  0  0  0  0999 V2000
   -0.9093   -3.6151    1.1668 O   0  0  0  0  0  0  0  0  0  0  0  0
   -0.8032   -2.4136    0.7348 C   0  0  0  0  0  0  0  0  0  0  0  0
    0.4381   -1.7599    0.5131 C   0  0  0  0  0  0  0  0  0  0  0  0
    0.5790   -0.3663    0.1957 C   0  0  0  0  0  0  0  0  0  0  0  0
   -0.5789    0.3664   -0.1951 C   0  0  0  0  0  0  0  0  0  0  0  0
   -0.4380    1.7598   -0.5127 C   0  0  0  0  0  0  0  0  0  0  0  0
    0.8034    2.4136   -0.7342 C   0  0  0  0  0  0  0  0  0  0  0  0
    0.9095    3.6151   -1.1664 O   0  0  0  0  0  0  0  0  0  0  0  0
    1.9756    1.6528   -0.2803 C   0  0  0  0  0  0  0  0  0  0  0  0
    1.8479    0.3469    0.2892 C   0  0  0  0  0  0  0  0  0  0  0  0
    2.9827   -0.1616    0.9793 C   0  0  0  0  0  0  0  0  0  0  0  0
    4.1932    0.5140    1.0072 C   0  0  0  0  0  0  0  0  0  0  0  0
    4.3335    1.7488    0.3449 C   0  0  0  0  0  0  0  0  0  0  0  0
    3.2263    2.3099   -0.2704 C   0  0  0  0  0  0  0  0  0  0  0  0
   -1.8479   -0.3468   -0.2883 C   0  0  0  0  0  0  0  0  0  0  0  0
   -1.9756   -1.6526    0.2814 C   0  0  0  0  0  0  0  0  0  0  0  0
   -3.2263   -2.3095    0.2720 C   0  0  0  0  0  0  0  0  0  0  0  0
   -4.3337   -1.7484   -0.3429 C   0  0  0  0  0  0  0  0  0  0  0  0
   -4.1935   -0.5137   -1.0054 C   0  0  0  0  0  0  0  0  0  0  0  0
   -2.9829    0.1617   -0.9780 C   0  0  0  0  0  0  0  0  0  0  0  0
    2.9084   -1.0929    1.5347 H   0  0  0  0  0  0  0  0  0  0  0  0
    5.0348    0.0858    1.5547 H   0  0  0  0  0  0  0  0  0  0  0  0
    5.2913    2.2720    0.3482 H   0  0  0  0  0  0  0  0  0  0  0  0
    3.2774    3.2966   -0.7326 H   0  0  0  0  0  0  0  0  0  0  0  0
   -3.2774   -3.2962    0.7343 H   0  0  0  0  0  0  0  0  0  0  0  0
   -5.2915   -2.2716   -0.3459 H   0  0  0  0  0  0  0  0  0  0  0  0
   -5.0352   -0.0855   -1.5526 H   0  0  0  0  0  0  0  0  0  0  0  0
   -2.9087    1.0930   -1.5335 H   0  0  0  0  0  0  0  0  0  0  0  0
   -1.5673    2.6366   -0.4598 N   0  0  0  0  0  0  0  0  0  0  0  0
   -2.4669    2.7312    0.5984 C   0  0  0  0  0  0  0  0  0  0  0  0
   -3.2988    3.7801    0.3318 C   0  0  0  0  0  0  0  0  0  0  0  0
   -2.8968    4.3206   -0.8778 N   0  0  0  0  0  0  0  0  0  0  0  0
   -1.8429    3.6203   -1.3379 C   0  0  0  0  0  0  0  0  0  0  0  0
   -1.3159    3.8028   -2.2627 H   0  0  0  0  0  0  0  0  0  0  0  0
   -3.4920    5.4839   -1.5321 C   0  0  0  0  0  0  0  0  0  0  0  0
   -4.1305    4.1879    0.8925 H   0  0  0  0  0  0  0  0  0  0  0  0
   -2.4318    2.0416    1.4312 H   0  0  0  0  0  0  0  0  0  0  0  0
   -3.0354    5.6057   -2.5193 H   0  0  0  0  0  0  0  0  0  0  0  0
   -4.5705    5.3255   -1.6446 H   0  0  0  0  0  0  0  0  0  0  0  0
   -3.3095    6.3813   -0.9288 H   0  0  0  0  0  0  0  0  0  0  0  0
    1.5674   -2.6366    0.4596 N   0  0  0  0  0  0  0  0  0  0  0  0
    2.4678   -2.7297   -0.5982 C   0  0  0  0  0  0  0  0  0  0  0  0
    3.2998   -3.7785   -0.3323 C   0  0  0  0  0  0  0  0  0  0  0  0
    2.8973   -4.3205    0.8765 N   0  0  0  0  0  0  0  0  0  0  0  0
    1.8428   -3.6212    1.3367 C   0  0  0  0  0  0  0  0  0  0  0  0
    1.3148   -3.8057    2.2606 H   0  0  0  0  0  0  0  0  0  0  0  0
    3.4913   -5.4856    1.5290 C   0  0  0  0  0  0  0  0  0  0  0  0
    4.1322   -4.1853   -0.8929 H   0  0  0  0  0  0  0  0  0  0  0  0
    2.4332   -2.0388   -1.4300 H   0  0  0  0  0  0  0  0  0  0  0  0
    3.0429   -5.6016    2.5206 H   0  0  0  0  0  0  0  0  0  0  0  0
    3.2983   -6.3837    0.9301 H   0  0  0  0  0  0  0  0  0  0  0  0
    4.5716   -5.3330    1.6314 H   0  0  0  0  0  0  0  0  0  0  0  0
  1  2  1  0
  2  3  2  0
  2 16  1  0
  3  4  1  0
  3 41  1  0
  4  5  2  0
  4 10  1  0
  5  6  1  0
  5 15  1  0
  6  7  2  0
  6 29  1  0
  7  8  1  0
  7  9  1  0
  9 10  2  0
  9 14  1  0
 10 11  1  0
 11 12  2  0
 11 21  1  0
 12 13  1  0
 12 22  1  0
 13 14  2  0
 13 23  1  0
 14 24  1  0
 15 16  2  0
 15 20  1  0
 16 17  1  0
 17 18  2  0
 17 25  1  0
 18 19  1  0
 18 26  1  0
 19 20  2  0
 19 27  1  0
 20 28  1  0
 29 30  1  0
 29 33  1  0
 30 31  2  0
 30 37  1  0
 31 32  1  0
 31 36  1  0
 32 33  2  0
 32 35  1  0
 33 34  1  0
 35 38  1  0
 35 39  1  0
 35 40  1  0
 41 42  1  0
 41 45  1  0
 42 43  2  0
 42 49  1  0
 43 44  1  0
 43 48  1  0
 44 45  2  0
 44 47  1  0
 45 46  1  0
 47 50  1  0
 47 51  1  0
 47 52  1  0
M  CHG  4   1  -1   8  -1  32   1  44   1
M  END

