
     RDKit          3D

 50 53  0  0  0  0  0  0  0  0999 V2000
   -0.0370   -0.0119   -0.1588 C   0  0  0  0  0  0  0  0  0  0  0  0
   -0.1429    0.1036    1.2566 C   0  0  0  0  0  0  0  0  0  0  0  0
    0.9987    0.1450    2.1032 C   0  0  0  0  0  0  0  0  0  0  0  0
    2.2811    0.0531    1.4547 C   0  0  0  0  0  0  0  0  0  0  0  0
    2.4106   -0.0478    0.0744 C   0  0  0  0  0  0  0  0  0  0  0  0
    1.2734   -0.0707   -0.7761 C   0  0  0  0  0  0  0  0  0  0  0  0
   -1.3998    0.1340    1.9011 N   0  0  0  0  0  0  0  0  0  0  0  0
    0.8775    0.2515    3.4097 O   0  0  0  0  0  0  0  0  0  0  0  0
    3.5026    0.0880    2.3307 C   0  0  0  0  0  0  0  0  0  0  0  0
    3.4130   -0.1288   -0.3530 H   0  0  0  0  0  0  0  0  0  0  0  0
    1.3795   -0.1477   -2.1939 C   0  0  0  0  0  0  0  0  0  0  0  0
   -1.1745   -0.0754   -1.0060 C   0  0  0  0  0  0  0  0  0  0  0  0
    0.2377   -0.2014   -3.0400 C   0  0  0  0  0  0  0  0  0  0  0  0
   -1.0449   -0.1684   -2.3871 C   0  0  0  0  0  0  0  0  0  0  0  0
    2.6350   -0.2343   -2.8355 N   0  0  0  0  0  0  0  0  0  0  0  0
    0.3598   -0.2564   -4.3495 O   0  0  0  0  0  0  0  0  0  0  0  0
   -2.2680   -0.2339   -3.2597 C   0  0  0  0  0  0  0  0  0  0  0  0
   -2.1778   -0.0711   -0.5729 H   0  0  0  0  0  0  0  0  0  0  0  0
    4.4111    0.2988    1.7555 H   0  0  0  0  0  0  0  0  0  0  0  0
    3.3900    0.8417    3.1228 H   0  0  0  0  0  0  0  0  0  0  0  0
    3.7442   -1.2098    3.0176 N   0  0  0  0  0  0  0  0  0  0  0  0
    4.8745   -1.9982    2.9202 C   0  0  0  0  0  0  0  0  0  0  0  0
    4.6542   -3.1100    3.6881 C   0  0  0  0  0  0  0  0  0  0  0  0
    3.3904   -2.9749    4.2359 N   0  0  0  0  0  0  0  0  0  0  0  0
    2.8530   -1.8171    3.8175 C   0  0  0  0  0  0  0  0  0  0  0  0
    1.8724   -1.3821    4.0372 H   0  0  0  0  0  0  0  0  0  0  0  0
    2.7395   -3.9383    5.1236 C   0  0  0  0  0  0  0  0  0  0  0  0
    5.2781   -3.9720    3.8889 H   0  0  0  0  0  0  0  0  0  0  0  0
    5.7292   -1.7076    2.3220 H   0  0  0  0  0  0  0  0  0  0  0  0
    1.7524   -3.5533    5.3956 H   0  0  0  0  0  0  0  0  0  0  0  0
    2.6320   -4.8975    4.6043 H   0  0  0  0  0  0  0  0  0  0  0  0
    3.3463   -4.0703    6.0266 H   0  0  0  0  0  0  0  0  0  0  0  0
   -2.5675    1.0707   -3.9101 N   0  0  0  0  0  0  0  0  0  0  0  0
   -2.1290   -0.9608   -4.0721 H   0  0  0  0  0  0  0  0  0  0  0  0
   -3.1638   -0.4972   -2.6862 H   0  0  0  0  0  0  0  0  0  0  0  0
   -3.7256    1.8126   -3.7807 C   0  0  0  0  0  0  0  0  0  0  0  0
   -3.5549    2.9530   -4.5189 C   0  0  0  0  0  0  0  0  0  0  0  0
   -2.2922    2.8812   -5.0811 N   0  0  0  0  0  0  0  0  0  0  0  0
   -1.7076    1.7333   -4.7003 C   0  0  0  0  0  0  0  0  0  0  0  0
   -0.7121    1.3426   -4.9362 H   0  0  0  0  0  0  0  0  0  0  0  0
   -1.6864    3.8929   -5.9468 C   0  0  0  0  0  0  0  0  0  0  0  0
   -4.2129    3.7956   -4.6902 H   0  0  0  0  0  0  0  0  0  0  0  0
   -4.5629    1.4736   -3.1835 H   0  0  0  0  0  0  0  0  0  0  0  0
   -0.6875    3.5541   -6.2363 H   0  0  0  0  0  0  0  0  0  0  0  0
   -2.3052    4.0256   -6.8415 H   0  0  0  0  0  0  0  0  0  0  0  0
   -1.6120    4.8411   -5.4022 H   0  0  0  0  0  0  0  0  0  0  0  0
   -1.2571    0.4365    2.8697 H   0  0  0  0  0  0  0  0  0  0  0  0
   -2.0917    0.7249    1.4394 H   0  0  0  0  0  0  0  0  0  0  0  0
    2.5007   -0.0446   -3.8334 H   0  0  0  0  0  0  0  0  0  0  0  0
    3.3476    0.3829   -2.4454 H   0  0  0  0  0  0  0  0  0  0  0  0
  1  2  2  0
  1  6  1  0
  1 12  1  0
  2  3  1  0
  2  7  1  0
  3  4  2  0
  3  8  1  0
  4  5  1  0
  4  9  1  0
  5  6  2  0
  5 10  1  0
  6 11  1  0
  7 47  1  0
  7 48  1  0
  9 19  1  0
  9 20  1  0
  9 21  1  0
 11 13  2  0
 11 15  1  0
 12 14  2  0
 12 18  1  0
 13 14  1  0
 13 16  1  0
 14 17  1  0
 15 49  1  0
 15 50  1  0
 17 33  1  0
 17 34  1  0
 17 35  1  0
 21 22  1  0
 21 25  1  0
 22 23  2  0
 22 29  1  0
 23 24  1  0
 23 28  1  0
 24 25  2  0
 24 27  1  0
 25 26  1  0
 27 30  1  0
 27 31  1  0
 27 32  1  0
 33 36  1  0
 33 39  1  0
 36 37  2  0
 36 43  1  0
 37 38  1  0
 37 42  1  0
 38 39  2  0
 38 41  1  0
 39 40  1  0
 41 44  1  0
 41 45  1  0
 41 46  1  0
M  CHG  4   8  -1  16  -1  24   1  38   1
M  END

