
     RDKit          3D

 26 28  0  0  0  0  0  0  0  0999 V2000
   -3.1160    2.0594   -0.6021 O   0  0  0  0  0  0  0  0  0  0  0  0
   -2.7296    0.7737   -0.2623 C   0  0  0  0  0  0  0  0  0  0  0  0
   -1.3642    0.4221   -0.1530 C   0  0  0  0  0  0  0  0  0  0  0  0
   -0.3065    1.3295   -0.3754 C   0  0  0  0  0  0  0  0  0  0  0  0
    1.0410    0.9538   -0.2600 C   0  0  0  0  0  0  0  0  0  0  0  0
    2.1170    1.8681   -0.4841 C   0  0  0  0  0  0  0  0  0  0  0  0
    3.4349    1.4704   -0.3640 C   0  0  0  0  0  0  0  0  0  0  0  0
    3.7975    0.1242   -0.0089 C   0  0  0  0  0  0  0  0  0  0  0  0
    5.0283   -0.3150    0.1212 O   0  0  0  0  0  0  0  0  0  0  0  0
    2.7296   -0.7739    0.2112 C   0  0  0  0  0  0  0  0  0  0  0  0
    3.1161   -2.0594    0.5509 O   0  0  0  0  0  0  0  0  0  0  0  0
    1.3642   -0.4220    0.1027 C   0  0  0  0  0  0  0  0  0  0  0  0
    0.3065   -1.3294    0.3252 C   0  0  0  0  0  0  0  0  0  0  0  0
   -1.0410   -0.9537    0.2098 C   0  0  0  0  0  0  0  0  0  0  0  0
   -2.1170   -1.8680    0.4338 C   0  0  0  0  0  0  0  0  0  0  0  0
   -3.4350   -1.4705    0.3130 C   0  0  0  0  0  0  0  0  0  0  0  0
   -3.7975   -0.1243   -0.0425 C   0  0  0  0  0  0  0  0  0  0  0  0
   -5.0283    0.3147   -0.1733 O   0  0  0  0  0  0  0  0  0  0  0  0
   -4.1100    1.9442   -0.5856 H   0  0  0  0  0  0  0  0  0  0  0  0
   -0.5436    2.3612   -0.6472 H   0  0  0  0  0  0  0  0  0  0  0  0
    1.8766    2.8998   -0.7557 H   0  0  0  0  0  0  0  0  0  0  0  0
    4.2465    2.1832   -0.5393 H   0  0  0  0  0  0  0  0  0  0  0  0
    4.1101   -1.9443    0.5342 H   0  0  0  0  0  0  0  0  0  0  0  0
    0.5436   -2.3612    0.5969 H   0  0  0  0  0  0  0  0  0  0  0  0
   -1.8767   -2.8996    0.7058 H   0  0  0  0  0  0  0  0  0  0  0  0
   -4.2465   -2.1833    0.4881 H   0  0  0  0  0  0  0  0  0  0  0  0
  1  2  1  0
  1 19  1  0
  2  3  2  0
  2 17  1  0
  3  4  1  0
  3 14  1  0
  4  5  2  0
  4 20  1  0
  5  6  1  0
  5 12  1  0
  6  7  2  0
  6 21  1  0
  7  8  1  0
  7 22  1  0
  8  9  2  0
  8 10  1  0
 10 11  1  0
 10 12  2  0
 11 23  1  0
 12 13  1  0
 13 14  2  0
 13 24  1  0
 14 15  1  0
 15 16  2  0
 15 25  1  0
 16 17  1  0
 16 26  1  0
 17 18  2  0
M  END

