
     RDKit          3D

 58 62  0  0  0  0  0  0  0  0999 V2000
    0.0838    0.0571   -0.1662 C   0  0  0  0  0  0  0  0  0  0  0  0
   -0.0821    0.0793    1.2286 C   0  0  0  0  0  0  0  0  0  0  0  0
    1.0039    0.0245    2.1293 C   0  0  0  0  0  0  0  0  0  0  0  0
    2.3285   -0.0555    1.5394 C   0  0  0  0  0  0  0  0  0  0  0  0
    2.4943   -0.0777    0.1447 C   0  0  0  0  0  0  0  0  0  0  0  0
    1.4083   -0.0233   -0.7561 C   0  0  0  0  0  0  0  0  0  0  0  0
   -1.1015    0.1412    1.6160 H   0  0  0  0  0  0  0  0  0  0  0  0
    0.8401    0.0466    3.5500 C   0  0  0  0  0  0  0  0  0  0  0  0
    3.4460   -0.1100    2.4236 C   0  0  0  0  0  0  0  0  0  0  0  0
    3.5137   -0.1397   -0.2427 H   0  0  0  0  0  0  0  0  0  0  0  0
    1.5719   -0.0466   -2.1767 C   0  0  0  0  0  0  0  0  0  0  0  0
   -1.0338    0.1117   -1.0504 C   0  0  0  0  0  0  0  0  0  0  0  0
    0.4508    0.0008   -3.0449 C   0  0  0  0  0  0  0  0  0  0  0  0
   -0.8696    0.0870   -2.4141 C   0  0  0  0  0  0  0  0  0  0  0  0
    2.9499   -0.1294   -2.7791 C   0  0  0  0  0  0  0  0  0  0  0  0
    0.5306   -0.0327   -4.3443 O   0  0  0  0  0  0  0  0  0  0  0  0
   -2.0640    0.1538   -3.3267 C   0  0  0  0  0  0  0  0  0  0  0  0
   -2.0391    0.1768   -0.6211 H   0  0  0  0  0  0  0  0  0  0  0  0
    3.2817   -0.0865    3.7874 C   0  0  0  0  0  0  0  0  0  0  0  0
    1.9612   -0.0017    4.4182 C   0  0  0  0  0  0  0  0  0  0  0  0
    4.4514   -0.1744    1.9944 H   0  0  0  0  0  0  0  0  0  0  0  0
   -0.5380    0.1282    4.1523 C   0  0  0  0  0  0  0  0  0  0  0  0
    1.8813    0.0297    5.7176 O   0  0  0  0  0  0  0  0  0  0  0  0
    4.4761   -0.1533    4.7000 C   0  0  0  0  0  0  0  0  0  0  0  0
    4.8420    1.1812    5.2418 N   0  0  0  0  0  0  0  0  0  0  0  0
    4.2656   -0.7973    5.5640 H   0  0  0  0  0  0  0  0  0  0  0  0
    5.3660   -0.5220    4.1777 H   0  0  0  0  0  0  0  0  0  0  0  0
    6.0035    1.8805    4.9750 C   0  0  0  0  0  0  0  0  0  0  0  0
    5.9095    3.0782    5.6309 C   0  0  0  0  0  0  0  0  0  0  0  0
    4.6881    3.0848    6.2807 N   0  0  0  0  0  0  0  0  0  0  0  0
    4.0543    1.9268    6.0335 C   0  0  0  0  0  0  0  0  0  0  0  0
    3.0618    1.6013    6.3490 H   0  0  0  0  0  0  0  0  0  0  0  0
    4.1666    4.1763    7.1036 C   0  0  0  0  0  0  0  0  0  0  0  0
    6.5973    3.9123    5.6921 H   0  0  0  0  0  0  0  0  0  0  0  0
    6.7902    1.4725    4.3528 H   0  0  0  0  0  0  0  0  0  0  0  0
    3.1728    3.8981    7.4663 H   0  0  0  0  0  0  0  0  0  0  0  0
    4.8371    4.3447    7.9538 H   0  0  0  0  0  0  0  0  0  0  0  0
    4.0976    5.0868    6.4977 H   0  0  0  0  0  0  0  0  0  0  0  0
   -1.8530    0.7966   -4.1915 H   0  0  0  0  0  0  0  0  0  0  0  0
   -2.4313   -1.1809   -3.8669 N   0  0  0  0  0  0  0  0  0  0  0  0
   -2.9535    0.5240   -2.8047 H   0  0  0  0  0  0  0  0  0  0  0  0
   -3.5942   -1.8781   -3.6008 C   0  0  0  0  0  0  0  0  0  0  0  0
   -3.5013   -3.0767   -4.2551 C   0  0  0  0  0  0  0  0  0  0  0  0
   -2.2790   -3.0861   -4.9032 N   0  0  0  0  0  0  0  0  0  0  0  0
   -1.6437   -1.9288   -4.6566 C   0  0  0  0  0  0  0  0  0  0  0  0
   -0.6504   -1.6051   -4.9716 H   0  0  0  0  0  0  0  0  0  0  0  0
   -1.7581   -4.1795   -5.7239 C   0  0  0  0  0  0  0  0  0  0  0  0
   -4.1903   -3.9098   -4.3161 H   0  0  0  0  0  0  0  0  0  0  0  0
   -4.3811   -1.4681   -2.9801 H   0  0  0  0  0  0  0  0  0  0  0  0
   -0.7638   -3.9029   -6.0867 H   0  0  0  0  0  0  0  0  0  0  0  0
   -1.6903   -5.0891   -5.1165 H   0  0  0  0  0  0  0  0  0  0  0  0
   -2.4283   -4.3487   -6.5743 H   0  0  0  0  0  0  0  0  0  0  0  0
   -0.4596    0.1222    5.2470 H   0  0  0  0  0  0  0  0  0  0  0  0
   -1.0712    1.0469    3.8511 H   0  0  0  0  0  0  0  0  0  0  0  0
   -1.1774   -0.7183    3.8469 H   0  0  0  0  0  0  0  0  0  0  0  0
    2.8714   -0.1242   -3.8739 H   0  0  0  0  0  0  0  0  0  0  0  0
    3.5899    0.7169   -2.4745 H   0  0  0  0  0  0  0  0  0  0  0  0
    3.4826   -1.0482   -2.4773 H   0  0  0  0  0  0  0  0  0  0  0  0
  1  2  2  0
  1  6  1  0
  1 12  1  0
  2  3  1  0
  2  7  1  0
  3  4  2  0
  3  8  1  0
  4  5  1  0
  4  9  1  0
  5  6  2  0
  5 10  1  0
  6 11  1  0
  8 20  2  0
  8 22  1  0
  9 19  2  0
  9 21  1  0
 11 13  2  0
 11 15  1  0
 12 14  2  0
 12 18  1  0
 13 14  1  0
 13 16  1  0
 14 17  1  0
 15 56  1  0
 15 57  1  0
 15 58  1  0
 17 39  1  0
 17 40  1  0
 17 41  1  0
 19 20  1  0
 19 24  1  0
 20 23  1  0
 22 53  1  0
 22 54  1  0
 22 55  1  0
 24 25  1  0
 24 26  1  0
 24 27  1  0
 25 28  1  0
 25 31  1  0
 28 29  2  0
 28 35  1  0
 29 30  1  0
 29 34  1  0
 30 31  2  0
 30 33  1  0
 31 32  1  0
 33 36  1  0
 33 37  1  0
 33 38  1  0
 40 42  1  0
 40 45  1  0
 42 43  2  0
 42 49  1  0
 43 44  1  0
 43 48  1  0
 44 45  2  0
 44 47  1  0
 45 46  1  0
 47 50  1  0
 47 51  1  0
 47 52  1  0
M  CHG  4  16  -1  23  -1  30   1  44   1
M  END

