
     RDKit          3D

 66 70  0  0  0  0  0  0  0  0999 V2000
    0.0800    0.0809   -0.1625 C   0  0  0  0  0  0  0  0  0  0  0  0
   -0.0859    0.0514    1.2307 C   0  0  0  0  0  0  0  0  0  0  0  0
    1.0030   -0.0378    2.1185 C   0  0  0  0  0  0  0  0  0  0  0  0
    2.3302   -0.0804    1.5365 C   0  0  0  0  0  0  0  0  0  0  0  0
    2.4962   -0.0506    0.1433 C   0  0  0  0  0  0  0  0  0  0  0  0
    1.4073    0.0388   -0.7445 C   0  0  0  0  0  0  0  0  0  0  0  0
   -1.1005    0.1028    1.6302 H   0  0  0  0  0  0  0  0  0  0  0  0
    0.8694   -0.0893    3.5390 C   0  0  0  0  0  0  0  0  0  0  0  0
    3.4505   -0.1298    2.4201 C   0  0  0  0  0  0  0  0  0  0  0  0
    3.5108   -0.1024   -0.2563 H   0  0  0  0  0  0  0  0  0  0  0  0
    1.5408    0.0910   -2.1650 C   0  0  0  0  0  0  0  0  0  0  0  0
   -1.0403    0.1291   -1.0461 C   0  0  0  0  0  0  0  0  0  0  0  0
    0.4308    0.0923   -3.0463 C   0  0  0  0  0  0  0  0  0  0  0  0
   -0.8882    0.1208   -2.4107 C   0  0  0  0  0  0  0  0  0  0  0  0
    2.8341    0.0776   -2.7675 N   0  0  0  0  0  0  0  0  0  0  0  0
    0.5444    0.0731   -4.3337 O   0  0  0  0  0  0  0  0  0  0  0  0
   -2.0844    0.1625   -3.3218 C   0  0  0  0  0  0  0  0  0  0  0  0
   -2.0437    0.1648   -0.6103 H   0  0  0  0  0  0  0  0  0  0  0  0
    3.2983   -0.1220    3.7847 C   0  0  0  0  0  0  0  0  0  0  0  0
    1.9793   -0.0924    4.4204 C   0  0  0  0  0  0  0  0  0  0  0  0
    4.4539   -0.1660    1.9844 H   0  0  0  0  0  0  0  0  0  0  0  0
   -0.4242   -0.0740    4.1410 N   0  0  0  0  0  0  0  0  0  0  0  0
    1.8657   -0.0739    5.7077 O   0  0  0  0  0  0  0  0  0  0  0  0
    4.4944   -0.1651    4.6958 C   0  0  0  0  0  0  0  0  0  0  0  0
    4.8218    1.1740    5.2474 N   0  0  0  0  0  0  0  0  0  0  0  0
    4.3025   -0.8229    5.5536 H   0  0  0  0  0  0  0  0  0  0  0  0
    5.3927   -0.5069    4.1702 H   0  0  0  0  0  0  0  0  0  0  0  0
    5.9337    1.9333    4.9364 C   0  0  0  0  0  0  0  0  0  0  0  0
    5.8154    3.1141    5.6180 C   0  0  0  0  0  0  0  0  0  0  0  0
    4.6289    3.0514    6.3267 N   0  0  0  0  0  0  0  0  0  0  0  0
    4.0399    1.8685    6.0898 C   0  0  0  0  0  0  0  0  0  0  0  0
    3.0797    1.5022    6.4492 H   0  0  0  0  0  0  0  0  0  0  0  0
    4.0988    4.1020    7.1965 C   0  0  0  0  0  0  0  0  0  0  0  0
    6.4652    3.9791    5.6614 H   0  0  0  0  0  0  0  0  0  0  0  0
    6.7074    1.5734    4.2699 H   0  0  0  0  0  0  0  0  0  0  0  0
    3.1345    3.7741    7.5953 H   0  0  0  0  0  0  0  0  0  0  0  0
    4.7990    4.2807    8.0202 H   0  0  0  0  0  0  0  0  0  0  0  0
    3.9654    5.0210    6.6148 H   0  0  0  0  0  0  0  0  0  0  0  0
   -1.8932    0.8203   -4.1797 H   0  0  0  0  0  0  0  0  0  0  0  0
   -2.4105   -1.1770   -3.8731 N   0  0  0  0  0  0  0  0  0  0  0  0
   -2.9830    0.5036   -2.7961 H   0  0  0  0  0  0  0  0  0  0  0  0
   -3.5216   -1.9373   -3.5622 C   0  0  0  0  0  0  0  0  0  0  0  0
   -3.4024   -3.1179   -4.2439 C   0  0  0  0  0  0  0  0  0  0  0  0
   -2.2160   -3.0541   -4.9527 N   0  0  0  0  0  0  0  0  0  0  0  0
   -1.6280   -1.8707   -4.7156 C   0  0  0  0  0  0  0  0  0  0  0  0
   -0.6681   -1.5036   -5.0749 H   0  0  0  0  0  0  0  0  0  0  0  0
   -1.6849   -4.1043   -5.8223 C   0  0  0  0  0  0  0  0  0  0  0  0
   -4.0515   -3.9834   -4.2873 H   0  0  0  0  0  0  0  0  0  0  0  0
   -4.2957   -1.5782   -2.8955 H   0  0  0  0  0  0  0  0  0  0  0  0
   -0.7236   -3.7731   -6.2255 H   0  0  0  0  0  0  0  0  0  0  0  0
   -1.5454   -5.0216   -5.2393 H   0  0  0  0  0  0  0  0  0  0  0  0
   -2.3875   -4.2876   -6.6429 H   0  0  0  0  0  0  0  0  0  0  0  0
   -1.3355   -1.0859    4.1691 C   0  0  0  0  0  0  0  0  0  0  0  0
   -0.6119    0.6711    4.8134 H   0  0  0  0  0  0  0  0  0  0  0  0
   -2.4057   -0.9688    4.7998 O   0  0  0  0  0  0  0  0  0  0  0  0
   -1.0029   -2.3402    3.3931 C   0  0  0  0  0  0  0  0  0  0  0  0
    0.0742   -2.5522    3.4088 H   0  0  0  0  0  0  0  0  0  0  0  0
   -1.5681   -3.1765    3.8188 H   0  0  0  0  0  0  0  0  0  0  0  0
   -1.2964   -2.2181    2.3401 H   0  0  0  0  0  0  0  0  0  0  0  0
    3.0207   -0.6646   -3.4434 H   0  0  0  0  0  0  0  0  0  0  0  0
    3.7456    1.0896   -2.7933 C   0  0  0  0  0  0  0  0  0  0  0  0
    4.8151    0.9742   -3.4253 O   0  0  0  0  0  0  0  0  0  0  0  0
    3.4141    2.3418   -2.0134 C   0  0  0  0  0  0  0  0  0  0  0  0
    2.3365    2.5517   -2.0229 H   0  0  0  0  0  0  0  0  0  0  0  0
    3.7138    2.2186   -0.9623 H   0  0  0  0  0  0  0  0  0  0  0  0
    3.9753    3.1800   -2.4406 H   0  0  0  0  0  0  0  0  0  0  0  0
  1  2  2  0
  1  6  1  0
  1 12  1  0
  2  3  1  0
  2  7  1  0
  3  4  2  0
  3  8  1  0
  4  5  1  0
  4  9  1  0
  5  6  2  0
  5 10  1  0
  6 11  1  0
  8 20  2  0
  8 22  1  0
  9 19  2  0
  9 21  1  0
 11 13  2  0
 11 15  1  0
 12 14  2  0
 12 18  1  0
 13 14  1  0
 13 16  1  0
 14 17  1  0
 15 60  1  0
 15 61  1  0
 17 39  1  0
 17 40  1  0
 17 41  1  0
 19 20  1  0
 19 24  1  0
 20 23  1  0
 22 53  1  0
 22 54  1  0
 24 25  1  0
 24 26  1  0
 24 27  1  0
 25 28  1  0
 25 31  1  0
 28 29  2  0
 28 35  1  0
 29 30  1  0
 29 34  1  0
 30 31  2  0
 30 33  1  0
 31 32  1  0
 33 36  1  0
 33 37  1  0
 33 38  1  0
 40 42  1  0
 40 45  1  0
 42 43  2  0
 42 49  1  0
 43 44  1  0
 43 48  1  0
 44 45  2  0
 44 47  1  0
 45 46  1  0
 47 50  1  0
 47 51  1  0
 47 52  1  0
 53 55  2  0
 53 56  1  0
 56 57  1  0
 56 58  1  0
 56 59  1  0
 61 62  2  0
 61 63  1  0
 63 64  1  0
 63 65  1  0
 63 66  1  0
M  CHG  4  16  -1  23  -1  30   1  44   1
M  END

