
     RDKit          3D

 46 50  0  0  0  0  0  0  0  0999 V2000
    0.0246   -0.0145   -0.0872 C   0  0  0  0  0  0  0  0  0  0  0  0
   -0.0458   -0.0676    1.3129 C   0  0  0  0  0  0  0  0  0  0  0  0
    1.1027   -0.0485    2.1284 C   0  0  0  0  0  0  0  0  0  0  0  0
    2.3861    0.0148    1.4625 C   0  0  0  0  0  0  0  0  0  0  0  0
    2.4565    0.0678    0.0625 C   0  0  0  0  0  0  0  0  0  0  0  0
    1.3080    0.0487   -0.7531 C   0  0  0  0  0  0  0  0  0  0  0  0
   -1.0372   -0.1329    1.7654 H   0  0  0  0  0  0  0  0  0  0  0  0
    1.0871   -0.1035    3.5546 C   0  0  0  0  0  0  0  0  0  0  0  0
    3.5688    0.0077    2.2714 C   0  0  0  0  0  0  0  0  0  0  0  0
    3.4479    0.1329   -0.3901 H   0  0  0  0  0  0  0  0  0  0  0  0
    1.3236    0.1034   -2.1792 C   0  0  0  0  0  0  0  0  0  0  0  0
   -1.1580   -0.0074   -0.8961 C   0  0  0  0  0  0  0  0  0  0  0  0
    0.1566    0.1623   -2.9966 C   0  0  0  0  0  0  0  0  0  0  0  0
   -1.0985    0.0805   -2.2598 C   0  0  0  0  0  0  0  0  0  0  0  0
    0.1762    0.2668   -4.2750 O   0  0  0  0  0  0  0  0  0  0  0  0
   -2.0119    0.0933   -2.8596 H   0  0  0  0  0  0  0  0  0  0  0  0
   -2.1277   -0.0642   -0.3934 H   0  0  0  0  0  0  0  0  0  0  0  0
    3.5093   -0.0808    3.6351 C   0  0  0  0  0  0  0  0  0  0  0  0
    2.2542   -0.1630    4.3719 C   0  0  0  0  0  0  0  0  0  0  0  0
    4.5384    0.0648    1.7687 H   0  0  0  0  0  0  0  0  0  0  0  0
    2.2346   -0.2683    5.6502 O   0  0  0  0  0  0  0  0  0  0  0  0
    4.4227   -0.0937    4.2349 H   0  0  0  0  0  0  0  0  0  0  0  0
   -0.1669   -0.0740    4.2455 N   0  0  0  0  0  0  0  0  0  0  0  0
   -1.1382    0.9201    4.1718 C   0  0  0  0  0  0  0  0  0  0  0  0
   -2.0880    0.6289    5.1086 C   0  0  0  0  0  0  0  0  0  0  0  0
   -1.6806   -0.5276    5.7533 N   0  0  0  0  0  0  0  0  0  0  0  0
   -0.5154   -0.9315    5.2213 C   0  0  0  0  0  0  0  0  0  0  0  0
    0.0532   -1.7998    5.5244 H   0  0  0  0  0  0  0  0  0  0  0  0
   -2.3950   -1.1934    6.8416 C   0  0  0  0  0  0  0  0  0  0  0  0
   -3.0070    1.1371    5.3727 H   0  0  0  0  0  0  0  0  0  0  0  0
   -1.0585    1.7397    3.4697 H   0  0  0  0  0  0  0  0  0  0  0  0
   -1.8456   -2.0967    7.1234 H   0  0  0  0  0  0  0  0  0  0  0  0
   -2.4606   -0.5187    7.7030 H   0  0  0  0  0  0  0  0  0  0  0  0
   -3.4014   -1.4652    6.5041 H   0  0  0  0  0  0  0  0  0  0  0  0
    2.5777    0.0738   -2.8701 N   0  0  0  0  0  0  0  0  0  0  0  0
    3.5480   -0.9213   -2.7977 C   0  0  0  0  0  0  0  0  0  0  0  0
    4.4979   -0.6300   -3.7345 C   0  0  0  0  0  0  0  0  0  0  0  0
    4.0914    0.5277   -4.3777 N   0  0  0  0  0  0  0  0  0  0  0  0
    2.9268    0.9322   -3.8450 C   0  0  0  0  0  0  0  0  0  0  0  0
    2.3594    1.8019   -4.1462 H   0  0  0  0  0  0  0  0  0  0  0  0
    4.8065    1.1944   -5.4650 C   0  0  0  0  0  0  0  0  0  0  0  0
    5.4163   -1.1388   -3.9994 H   0  0  0  0  0  0  0  0  0  0  0  0
    3.4674   -1.7418   -2.0968 H   0  0  0  0  0  0  0  0  0  0  0  0
    4.2550    2.0956   -5.7494 H   0  0  0  0  0  0  0  0  0  0  0  0
    5.8114    1.4698   -5.1254 H   0  0  0  0  0  0  0  0  0  0  0  0
    4.8762    0.5188   -6.3253 H   0  0  0  0  0  0  0  0  0  0  0  0
  1  2  2  0
  1  6  1  0
  1 12  1  0
  2  3  1  0
  2  7  1  0
  3  4  2  0
  3  8  1  0
  4  5  1  0
  4  9  1  0
  5  6  2  0
  5 10  1  0
  6 11  1  0
  8 19  2  0
  8 23  1  0
  9 18  2  0
  9 20  1  0
 11 13  2  0
 11 35  1  0
 12 14  2  0
 12 17  1  0
 13 14  1  0
 13 15  1  0
 14 16  1  0
 18 19  1  0
 18 22  1  0
 19 21  1  0
 23 24  1  0
 23 27  1  0
 24 25  2  0
 24 31  1  0
 25 26  1  0
 25 30  1  0
 26 27  2  0
 26 29  1  0
 27 28  1  0
 29 32  1  0
 29 33  1  0
 29 34  1  0
 35 36  1  0
 35 39  1  0
 36 37  2  0
 36 43  1  0
 37 38  1  0
 37 42  1  0
 38 39  2  0
 38 41  1  0
 39 40  1  0
 41 44  1  0
 41 45  1  0
 41 46  1  0
M  CHG  4  15  -1  21  -1  26   1  38   1
M  END

