
     RDKit          3D

 54 58  0  0  0  0  0  0  0  0999 V2000
   -0.1795    2.8108    0.6712 C   0  0  0  0  0  0  0  0  0  0  0  0
   -0.0576    1.3076    0.5268 C   0  0  0  0  0  0  0  0  0  0  0  0
   -1.2509    0.5592    0.3550 C   0  0  0  0  0  0  0  0  0  0  0  0
   -2.5270    1.1711    0.6048 C   0  0  0  0  0  0  0  0  0  0  0  0
   -3.6920    0.4731    0.4604 C   0  0  0  0  0  0  0  0  0  0  0  0
   -4.9225    1.0041    0.7173 O   0  0  0  0  0  0  0  0  0  0  0  0
   -3.7336   -0.8857   -0.0622 C   0  0  0  0  0  0  0  0  0  0  0  0
   -4.8958   -1.4050   -0.2753 O   0  0  0  0  0  0  0  0  0  0  0  0
   -2.4783   -1.4620   -0.3475 C   0  0  0  0  0  0  0  0  0  0  0  0
   -1.2122   -0.8329   -0.0513 C   0  0  0  0  0  0  0  0  0  0  0  0
    0.0465   -1.4820   -0.1316 C   0  0  0  0  0  0  0  0  0  0  0  0
    0.1686   -2.9853   -0.2757 C   0  0  0  0  0  0  0  0  0  0  0  0
    1.2398   -0.7336    0.0399 C   0  0  0  0  0  0  0  0  0  0  0  0
    2.5158   -1.3454   -0.2102 C   0  0  0  0  0  0  0  0  0  0  0  0
    3.6809   -0.6477   -0.0651 C   0  0  0  0  0  0  0  0  0  0  0  0
    4.9114   -1.1786   -0.3224 O   0  0  0  0  0  0  0  0  0  0  0  0
    3.7225    0.7108    0.4586 C   0  0  0  0  0  0  0  0  0  0  0  0
    4.8847    1.2296    0.6729 O   0  0  0  0  0  0  0  0  0  0  0  0
    2.4672    1.2872    0.7434 C   0  0  0  0  0  0  0  0  0  0  0  0
    1.2011    0.6583    0.4466 C   0  0  0  0  0  0  0  0  0  0  0  0
    0.7187    3.3219    0.3101 H   0  0  0  0  0  0  0  0  0  0  0  0
   -1.0155    3.1844    0.0654 H   0  0  0  0  0  0  0  0  0  0  0  0
   -0.3568    3.1458    1.7064 H   0  0  0  0  0  0  0  0  0  0  0  0
   -2.5837    2.1984    0.9621 H   0  0  0  0  0  0  0  0  0  0  0  0
   -5.5238    0.2550    0.4425 H   0  0  0  0  0  0  0  0  0  0  0  0
    1.0045   -3.3586    0.3304 H   0  0  0  0  0  0  0  0  0  0  0  0
   -0.7295   -3.4964    0.0853 H   0  0  0  0  0  0  0  0  0  0  0  0
    0.3461   -3.3206   -1.3108 H   0  0  0  0  0  0  0  0  0  0  0  0
    2.5725   -2.3724   -0.5682 H   0  0  0  0  0  0  0  0  0  0  0  0
    5.5128   -0.4300   -0.0462 H   0  0  0  0  0  0  0  0  0  0  0  0
    2.5389    2.4569    1.5703 N   0  0  0  0  0  0  0  0  0  0  0  0
    1.9856    2.5856    2.8393 C   0  0  0  0  0  0  0  0  0  0  0  0
    2.4346    3.7659    3.3591 C   0  0  0  0  0  0  0  0  0  0  0  0
    3.2673    4.3358    2.4114 N   0  0  0  0  0  0  0  0  0  0  0  0
    3.3230    3.5256    1.3403 C   0  0  0  0  0  0  0  0  0  0  0  0
    3.8941    3.7031    0.4398 H   0  0  0  0  0  0  0  0  0  0  0  0
    3.9804    5.6038    2.5570 C   0  0  0  0  0  0  0  0  0  0  0  0
    2.2383    4.2450    4.3102 H   0  0  0  0  0  0  0  0  0  0  0  0
    1.3276    1.8287    3.2452 H   0  0  0  0  0  0  0  0  0  0  0  0
    4.5307    5.8072    1.6335 H   0  0  0  0  0  0  0  0  0  0  0  0
    3.2593    6.4082    2.7406 H   0  0  0  0  0  0  0  0  0  0  0  0
    4.6823    5.5348    3.3963 H   0  0  0  0  0  0  0  0  0  0  0  0
   -2.5502   -2.6319   -1.1741 N   0  0  0  0  0  0  0  0  0  0  0  0
   -1.9967   -2.7612   -2.4429 C   0  0  0  0  0  0  0  0  0  0  0  0
   -2.4457   -3.9416   -2.9624 C   0  0  0  0  0  0  0  0  0  0  0  0
   -3.2784   -4.5111   -2.0146 N   0  0  0  0  0  0  0  0  0  0  0  0
   -3.3345   -3.7005   -0.9438 C   0  0  0  0  0  0  0  0  0  0  0  0
   -3.9062   -3.8773   -0.0436 H   0  0  0  0  0  0  0  0  0  0  0  0
   -3.9928   -5.7784   -2.1603 C   0  0  0  0  0  0  0  0  0  0  0  0
   -2.2493   -4.4211   -3.9132 H   0  0  0  0  0  0  0  0  0  0  0  0
   -1.3384   -2.0045   -2.8489 H   0  0  0  0  0  0  0  0  0  0  0  0
   -4.5343   -5.9870   -1.2328 H   0  0  0  0  0  0  0  0  0  0  0  0
   -4.7026   -5.7052   -2.9927 H   0  0  0  0  0  0  0  0  0  0  0  0
   -3.2732   -6.5815   -2.3549 H   0  0  0  0  0  0  0  0  0  0  0  0
  1  2  1  0
  1 21  1  0
  1 22  1  0
  1 23  1  0
  2  3  2  0
  2 20  1  0
  3  4  1  0
  3 10  1  0
  4  5  2  0
  4 24  1  0
  5  6  1  0
  5  7  1  0
  6 25  1  0
  7  8  1  0
  7  9  2  0
  9 10  1  0
  9 43  1  0
 10 11  2  0
 11 12  1  0
 11 13  1  0
 12 26  1  0
 12 27  1  0
 12 28  1  0
 13 14  1  0
 13 20  2  0
 14 15  2  0
 14 29  1  0
 15 16  1  0
 15 17  1  0
 16 30  1  0
 17 18  1  0
 17 19  2  0
 19 20  1  0
 19 31  1  0
 31 32  1  0
 31 35  1  0
 32 33  2  0
 32 39  1  0
 33 34  1  0
 33 38  1  0
 34 35  2  0
 34 37  1  0
 35 36  1  0
 37 40  1  0
 37 41  1  0
 37 42  1  0
 43 44  1  0
 43 47  1  0
 44 45  2  0
 44 51  1  0
 45 46  1  0
 45 50  1  0
 46 47  2  0
 46 49  1  0
 47 48  1  0
 49 52  1  0
 49 53  1  0
 49 54  1  0
M  CHG  4   8  -1  18  -1  34   1  46   1
M  END

